Z359510198
  MOE2024           3D

 19 19  0  0  0  0  0  0  0  0999 V2000
    1.7320    2.4760    0.2240 C   0  0  0  0  0  0  0  0  0  0  0  0
    1.5750    3.3890   -0.3230 H   0  0  0  0  0  0  0  0  0  0  0  0
    2.0010    2.7620    1.2260 H   0  0  0  0  0  0  0  0  0  0  0  0
    2.8890    1.7180   -0.4280 C   0  0  0  0  0  0  0  0  0  0  0  0
    3.7730    2.3360   -0.3880 H   0  0  0  0  0  0  0  0  0  0  0  0
    2.6670    1.5130   -1.4630 H   0  0  0  0  0  0  0  0  0  0  0  0
    3.1310    0.4550    0.3090 N   0  3  0  0  0  0  0  0  0  0  0  0
    2.7470    0.5930    1.2580 H   0  0  0  0  0  0  0  0  0  0  0  0
    4.1330    0.2480    0.3860 H   0  0  0  0  0  0  0  0  0  0  0  0
    2.3740   -0.7050   -0.2490 C   0  0  0  0  0  0  0  0  0  0  0  0
    2.7470   -1.6190    0.1850 H   0  0  0  0  0  0  0  0  0  0  0  0
    2.5190   -0.7740   -1.3150 H   0  0  0  0  0  0  0  0  0  0  0  0
    0.8680   -0.6090    0.0660 C   0  0  0  0  0  0  0  0  0  0  0  0
    0.5600   -1.4980    0.5900 H   0  0  0  0  0  0  0  0  0  0  0  0
    0.2810   -0.5450   -0.8350 H   0  0  0  0  0  0  0  0  0  0  0  0
    0.5870    0.4840    0.9010 O   0  0  0  0  0  0  0  0  0  0  0  0
    0.4040    1.7110    0.2590 C   0  0  0  0  0  0  0  0  0  0  0  0
    0.0010    1.5590   -0.7290 H   0  0  0  0  0  0  0  0  0  0  0  0
   -0.3190    2.2670    0.8330 H   0  0  0  0  0  0  0  0  0  0  0  0
  1  2  1  0  0  0  0
  1  3  1  0  0  0  0
  1  4  1  0  0  0  0
  1 17  1  0  0  0  0
  4  5  1  0  0  0  0
  4  6  1  0  0  0  0
  4  7  1  0  0  0  0
  7  8  1  0  0  0  0
  7  9  1  0  0  0  0
  7 10  1  0  0  0  0
 10 11  1  0  0  0  0
 10 12  1  0  0  0  0
 10 13  1  0  0  0  0
 13 14  1  0  0  0  0
 13 15  1  0  0  0  0
 13 16  1  0  0  0  0
 16 17  1  0  0  0  0
 17 18  1  0  0  0  0
 17 19  1  0  0  0  0
M  CHG  1   7   1
M  END
>  <Catalog ID>
Z359510198

>  <a_acc>
1

>  <a_don>
0

>  <a_heavy>
7

>  <logP>
-0.093000002

>  <logS>
0.17366

>  <TPSA>
25.84

>  <Weight>
102.157

$$$$
Z1012638850
  MOE2024           3D

 13 13  0  0  0  0  0  0  0  0999 V2000
    5.4890    1.4390   -0.4800 O   0  0  0  0  0  0  0  0  0  0  0  0
    6.0260    2.2420   -0.3040 H   0  0  0  0  0  0  0  0  0  0  0  0
    5.5400    0.5460    0.6010 C   0  0  0  0  0  0  0  0  0  0  0  0
    5.7160    1.0470    1.5350 H   0  0  0  0  0  0  0  0  0  0  0  0
    6.3980   -0.7150    0.2900 C   0  0  0  0  0  0  0  0  0  0  0  0
    6.6420   -1.2900    1.1650 H   0  0  0  0  0  0  0  0  0  0  0  0
    7.2200   -0.5440   -0.3810 H   0  0  0  0  0  0  0  0  0  0  0  0
    5.1840   -1.2720   -0.4030 N   0  3  0  0  0  0  0  0  0  0  0  0
    5.0660   -2.2870   -0.3460 H   0  0  0  0  0  0  0  0  0  0  0  0
    5.0950   -0.8760   -1.3480 H   0  0  0  0  0  0  0  0  0  0  0  0
    4.3620   -0.4700    0.5690 C   0  0  0  0  0  0  0  0  0  0  0  0
    3.4540   -0.0920    0.1360 H   0  0  0  0  0  0  0  0  0  0  0  0
    4.2330   -1.0010    1.4950 H   0  0  0  0  0  0  0  0  0  0  0  0
  1  2  1  0  0  0  0
  1  3  1  0  0  0  0
  3  4  1  0  0  0  0
  3  5  1  0  0  0  0
  3 11  1  0  0  0  0
  5  6  1  0  0  0  0
  5  7  1  0  0  0  0
  5  8  1  0  0  0  0
  8  9  1  0  0  0  0
  8 10  1  0  0  0  0
  8 11  1  0  0  0  0
 11 12  1  0  0  0  0
 11 13  1  0  0  0  0
M  CHG  1   8   1
M  END
>  <Catalog ID>
Z1012638850

>  <a_acc>
1

>  <a_don>
1

>  <a_heavy>
5

>  <logP>
-1.026

>  <logS>
0.72061002

>  <TPSA>
36.84

>  <Weight>
74.102997

$$$$
Z104476730
  MOE2024           3D

 10 10  0  0  0  0  0  0  0  0999 V2000
    1.1770    3.3510    0.1490 N   0  0  0  0  0  0  0  0  0  0  0  0
    0.2450    3.7000   -0.0870 H   0  0  0  0  0  0  0  0  0  0  0  0
    1.8640    3.7920   -0.4630 H   0  0  0  0  0  0  0  0  0  0  0  0
    1.1820    1.9810    0.0150 C   0  0  0  0  0  0  0  0  0  0  0  0
    2.2870    1.1490    0.1750 C   0  0  0  0  0  0  0  0  0  0  0  0
    3.2780    1.4620    0.4380 H   0  0  0  0  0  0  0  0  0  0  0  0
    1.7890   -0.0710   -0.0680 C   0  0  0  0  0  0  0  0  0  0  0  0
    2.2380   -1.0480   -0.0690 H   0  0  0  0  0  0  0  0  0  0  0  0
    0.5160    0.0540   -0.3430 O   0  0  0  0  0  0  0  0  0  0  0  0
    0.1340    1.3100   -0.2950 N   0  0  0  0  0  0  0  0  0  0  0  0
  1  2  1  0  0  0  0
  1  3  1  0  0  0  0
  1  4  1  0  0  0  0
  4  5  1  0  0  0  0
  4 10  2  0  0  0  0
  5  6  1  0  0  0  0
  5  7  2  0  0  0  0
  7  8  1  0  0  0  0
  7  9  1  0  0  0  0
  9 10  1  0  0  0  0
M  END
>  <Catalog ID>
Z104476730

>  <a_acc>
1

>  <a_don>
1

>  <a_heavy>
6

>  <logP>
-0.032000002

>  <logS>
-0.063369997

>  <TPSA>
52.049999

>  <Weight>
84.077995

$$$$
Z240126818
  MOE2024           3D

 11 11  0  0  0  0  0  0  0  0999 V2000
    1.2430    3.3320    0.1840 N   0  0  0  0  0  0  0  0  0  0  0  0
    0.2700    3.6090    0.0460 H   0  0  0  0  0  0  0  0  0  0  0  0
    1.7700    3.7580   -0.5770 H   0  0  0  0  0  0  0  0  0  0  0  0
    1.2430    1.9770   -0.0060 C   0  0  0  0  0  0  0  0  0  0  0  0
    2.2710    1.0830    0.2670 C   0  0  0  0  0  0  0  0  0  0  0  0
    3.2260    1.3420    0.6850 H   0  0  0  0  0  0  0  0  0  0  0  0
    1.7790   -0.1180   -0.1040 C   0  0  0  0  0  0  0  0  0  0  0  0
    2.2340   -1.0920   -0.0650 H   0  0  0  0  0  0  0  0  0  0  0  0
    0.5300    0.1030   -0.5630 N   0  0  0  0  0  0  0  0  0  0  0  0
   -0.1230   -0.6070   -0.9180 H   0  0  0  0  0  0  0  0  0  0  0  0
    0.1990    1.4170   -0.5050 N   0  0  0  0  0  0  0  0  0  0  0  0
  1  2  1  0  0  0  0
  1  3  1  0  0  0  0
  1  4  1  0  0  0  0
  4  5  1  0  0  0  0
  4 11  2  0  0  0  0
  5  6  1  0  0  0  0
  5  7  2  0  0  0  0
  7  8  1  0  0  0  0
  7  9  1  0  0  0  0
  9 10  1  0  0  0  0
  9 11  1  0  0  0  0
M  END
>  <Catalog ID>
Z240126818

>  <a_acc>
2

>  <a_don>
3

>  <a_heavy>
6

>  <logP>
0.235

>  <logS>
0.14693999

>  <TPSA>
54.700001

>  <Weight>
83.094002

$$$$
Z1201023052
  MOE2024           3D

 11 11  0  0  0  0  0  0  0  0999 V2000
    4.8390    2.1270   -0.0300 O   0  0  0  0  0  0  0  0  0  0  0  0
    4.8080    0.9130   -0.0200 C   0  0  0  0  0  0  0  0  0  0  0  0
    5.9900    0.2300   -0.0150 N   0  0  0  0  0  0  0  0  0  0  0  0
    6.8130    0.8310   -0.0200 H   0  0  0  0  0  0  0  0  0  0  0  0
    6.0430   -1.1360   -0.0040 C   0  0  0  0  0  0  0  0  0  0  0  0
    7.0060   -1.6230    0.0000 H   0  0  0  0  0  0  0  0  0  0  0  0
    4.8610   -1.7960    0.0020 C   0  0  0  0  0  0  0  0  0  0  0  0
    4.7970   -2.8680    0.0110 H   0  0  0  0  0  0  0  0  0  0  0  0
    3.6610   -1.0450   -0.0040 C   0  0  0  0  0  0  0  0  0  0  0  0
    2.7370   -1.5950    0.0010 H   0  0  0  0  0  0  0  0  0  0  0  0
    3.6150    0.2400   -0.0140 N   0  0  0  0  0  0  0  0  0  0  0  0
  1  2  2  0  0  0  0
  2  3  1  0  0  0  0
  2 11  1  0  0  0  0
  3  4  1  0  0  0  0
  3  5  1  0  0  0  0
  5  6  1  0  0  0  0
  5  7  2  0  0  0  0
  7  8  1  0  0  0  0
  7  9  1  0  0  0  0
  9 10  1  0  0  0  0
  9 11  2  0  0  0  0
M  END
>  <Catalog ID>
Z1201023052

>  <a_acc>
2

>  <a_don>
2

>  <a_heavy>
7

>  <logP>
-0.15700001

>  <logS>
-0.3678

>  <TPSA>
41.459999

>  <Weight>
96.088997

$$$$
Z991531024
  MOE2024           3D

 12 12  0  0  0  0  0  0  0  0999 V2000
    1.3960    3.5390   -0.0390 N   0  0  0  0  0  0  0  0  0  0  0  0
    0.4650    3.9320    0.1230 H   0  0  0  0  0  0  0  0  0  0  0  0
    2.1360    4.0370    0.4540 H   0  0  0  0  0  0  0  0  0  0  0  0
    1.4250    2.1730   -0.0200 C   0  0  0  0  0  0  0  0  0  0  0  0
    2.6240    1.4870   -0.0450 C   0  0  0  0  0  0  0  0  0  0  0  0
    3.5560    2.0160   -0.0960 H   0  0  0  0  0  0  0  0  0  0  0  0
    2.5690    0.1150   -0.0100 C   0  0  0  0  0  0  0  0  0  0  0  0
    3.4590   -0.4880   -0.0280 H   0  0  0  0  0  0  0  0  0  0  0  0
    1.3160   -0.4550    0.0480 C   0  0  0  0  0  0  0  0  0  0  0  0
    1.2220   -1.5260    0.0770 H   0  0  0  0  0  0  0  0  0  0  0  0
    0.1880    0.2440    0.0710 N   0  0  0  0  0  0  0  0  0  0  0  0
    0.2440    1.5560    0.0350 N   0  0  0  0  0  0  0  0  0  0  0  0
  1  2  1  0  0  0  0
  1  3  1  0  0  0  0
  1  4  1  0  0  0  0
  4  5  1  0  0  0  0
  4 12  2  0  0  0  0
  5  6  1  0  0  0  0
  5  7  2  0  0  0  0
  7  8  1  0  0  0  0
  7  9  1  0  0  0  0
  9 10  1  0  0  0  0
  9 11  2  0  0  0  0
 11 12  1  0  0  0  0
M  END
>  <Catalog ID>
Z991531024

>  <a_acc>
2

>  <a_don>
1

>  <a_heavy>
7

>  <logP>
0.64499998

>  <logS>
-0.1517

>  <TPSA>
51.799999

>  <Weight>
95.104996

$$$$
Z1741980200
  MOE2024           3D

 14 14  0  0  0  0  0  0  0  0999 V2000
    4.1600    2.0970    0.0920 N   0  3  0  0  0  0  0  0  0  0  0  0
    3.6300    1.3480   -0.3830 H   0  0  0  0  0  0  0  0  0  0  0  0
    3.8610    3.0120   -0.2550 H   0  0  0  0  0  0  0  0  0  0  0  0
    3.9600    2.0000    1.0910 H   0  0  0  0  0  0  0  0  0  0  0  0
    5.5790    1.7930   -0.1930 C   0  0  0  0  0  0  0  0  0  0  0  0
    6.2350    2.2740    0.5140 H   0  0  0  0  0  0  0  0  0  0  0  0
    5.8300    2.1190   -1.1900 H   0  0  0  0  0  0  0  0  0  0  0  0
    5.7190    0.2830   -0.1260 C   0  0  0  0  0  0  0  0  0  0  0  0
    6.7160   -0.4850    0.3410 C   0  0  0  0  0  0  0  0  0  0  0  0
    7.6730   -0.2640    0.7830 H   0  0  0  0  0  0  0  0  0  0  0  0
    6.3620   -1.7290    0.1820 O   0  0  0  0  0  0  0  0  0  0  0  0
    5.1730   -1.6950   -0.3710 C   0  0  0  0  0  0  0  0  0  0  0  0
    4.6830   -2.6280   -0.6000 H   0  0  0  0  0  0  0  0  0  0  0  0
    4.7170   -0.5080   -0.5810 N   0  0  0  0  0  0  0  0  0  0  0  0
  1  2  1  0  0  0  0
  1  3  1  0  0  0  0
  1  4  1  0  0  0  0
  1  5  1  0  0  0  0
  5  6  1  0  0  0  0
  5  7  1  0  0  0  0
  5  8  1  0  0  0  0
  8  9  2  0  0  0  0
  8 14  1  0  0  0  0
  9 10  1  0  0  0  0
  9 11  1  0  0  0  0
 11 12  1  0  0  0  0
 12 13  1  0  0  0  0
 12 14  2  0  0  0  0
M  CHG  1   1   1
M  END
>  <Catalog ID>
Z1741980200

>  <a_acc>
1

>  <a_don>
0

>  <a_heavy>
7

>  <logP>
-1.2410001

>  <logS>
0.0071399999

>  <TPSA>
53.669998

>  <Weight>
99.112999

$$$$
Z147647094
  MOE2024           3D

 11 11  0  0  0  0  0  0  0  0999 V2000
    0.0700    4.2000   -0.0060 O   0  5  0  0  0  0  0  0  0  0  0  0
    1.1110    3.5200   -0.0030 C   0  0  0  0  0  0  0  0  0  0  0  0
    2.2130    4.0960    0.0000 O   0  0  0  0  0  0  0  0  0  0  0  0
    1.0350    2.0680   -0.0030 C   0  0  0  0  0  0  0  0  0  0  0  0
    2.2060    1.2280    0.0010 C   0  0  0  0  0  0  0  0  0  0  0  0
    3.1810    1.6880    0.0040 H   0  0  0  0  0  0  0  0  0  0  0  0
    1.9520   -0.0930    0.0010 C   0  0  0  0  0  0  0  0  0  0  0  0
    2.6030   -0.9470    0.0030 H   0  0  0  0  0  0  0  0  0  0  0  0
    0.2250   -0.3880   -0.0040 S   0  0  0  0  0  0  0  0  0  0  0  0
   -0.1030    1.3330   -0.0060 C   0  0  0  0  0  0  0  0  0  0  0  0
   -1.1270    1.6610   -0.0090 H   0  0  0  0  0  0  0  0  0  0  0  0
  1  2  1  0  0  0  0
  2  3  2  0  0  0  0
  2  4  1  0  0  0  0
  4  5  1  0  0  0  0
  4 10  2  0  0  0  0
  5  6  1  0  0  0  0
  5  7  2  0  0  0  0
  7  8  1  0  0  0  0
  7  9  1  0  0  0  0
  9 10  1  0  0  0  0
 10 11  1  0  0  0  0
M  CHG  1   1  -1
M  END
>  <Catalog ID>
Z147647094

>  <a_acc>
0

>  <a_don>
0

>  <a_heavy>
8

>  <logP>
1.354

>  <logS>
-1.2684799

>  <TPSA>
40.130001

>  <Weight>
127.143

$$$$
Z57127568
  MOE2024           3D

 16 16  0  0  0  0  0  0  0  0999 V2000
    1.2940    2.2500    0.1170 C   0  0  0  0  0  0  0  0  0  0  0  0
    1.3660    3.1770   -0.4310 H   0  0  0  0  0  0  0  0  0  0  0  0
    1.2360    2.4910    1.1660 H   0  0  0  0  0  0  0  0  0  0  0  0
    2.5680    1.4150   -0.1150 C   0  0  0  0  0  0  0  0  0  0  0  0
    3.4200    1.9080    0.3230 H   0  0  0  0  0  0  0  0  0  0  0  0
    2.7590    1.2710   -1.1640 H   0  0  0  0  0  0  0  0  0  0  0  0
    2.4410    0.1640    0.4970 O   0  0  0  0  0  0  0  0  0  0  0  0
    1.3770   -0.6180    0.0390 C   0  0  0  0  0  0  0  0  0  0  0  0
    1.3970   -1.5470    0.5830 H   0  0  0  0  0  0  0  0  0  0  0  0
    1.5260   -0.8320   -1.0060 H   0  0  0  0  0  0  0  0  0  0  0  0
    0.0410    0.1110    0.2810 C   0  0  0  0  0  0  0  0  0  0  0  0
   -0.1250    0.1650    1.3450 H   0  0  0  0  0  0  0  0  0  0  0  0
   -0.7640   -0.4610   -0.1510 H   0  0  0  0  0  0  0  0  0  0  0  0
    0.0620    1.4970   -0.2990 N   0  3  0  0  0  0  0  0  0  0  0  0
   -0.7800    2.0120   -0.0100 H   0  0  0  0  0  0  0  0  0  0  0  0
    0.0430    1.4300   -1.3240 H   0  0  0  0  0  0  0  0  0  0  0  0
  1  2  1  0  0  0  0
  1  3  1  0  0  0  0
  1  4  1  0  0  0  0
  1 14  1  0  0  0  0
  4  5  1  0  0  0  0
  4  6  1  0  0  0  0
  4  7  1  0  0  0  0
  7  8  1  0  0  0  0
  8  9  1  0  0  0  0
  8 10  1  0  0  0  0
  8 11  1  0  0  0  0
 11 12  1  0  0  0  0
 11 13  1  0  0  0  0
 11 14  1  0  0  0  0
 14 15  1  0  0  0  0
 14 16  1  0  0  0  0
M  CHG  1  14   1
M  END
>  <Catalog ID>
Z57127568

>  <a_acc>
1

>  <a_don>
0

>  <a_heavy>
6

>  <logP>
-0.53500003

>  <logS>
0.37542999

>  <TPSA>
25.84

>  <Weight>
88.129997

$$$$
Z247612572
  MOE2024           3D

 10 10  0  0  0  0  0  0  0  0999 V2000
    0.4410    3.8890   -1.2380 N   0  0  0  0  0  0  0  0  0  0  0  0
    0.4420    2.9740   -0.5620 C   0  0  0  0  0  0  0  0  0  0  0  0
    0.4430    1.7730    0.3280 C   0  0  0  0  0  0  0  0  0  0  0  0
    0.4420    2.0460    1.3680 H   0  0  0  0  0  0  0  0  0  0  0  0
    1.1940    0.5350   -0.0650 C   0  0  0  0  0  0  0  0  0  0  0  0
    1.7130   -0.0180    0.6980 H   0  0  0  0  0  0  0  0  0  0  0  0
    1.7090    0.5160   -1.0110 H   0  0  0  0  0  0  0  0  0  0  0  0
   -0.3040    0.5330   -0.0660 C   0  0  0  0  0  0  0  0  0  0  0  0
   -0.8180    0.5120   -1.0120 H   0  0  0  0  0  0  0  0  0  0  0  0
   -0.8220   -0.0210    0.6970 H   0  0  0  0  0  0  0  0  0  0  0  0
  1  2  3  0  0  0  0
  2  3  1  0  0  0  0
  3  4  1  0  0  0  0
  3  5  1  0  0  0  0
  3  8  1  0  0  0  0
  5  6  1  0  0  0  0
  5  7  1  0  0  0  0
  5  8  1  0  0  0  0
  8  9  1  0  0  0  0
  8 10  1  0  0  0  0
M  END
>  <Catalog ID>
Z247612572

>  <a_acc>
1

>  <a_don>
0

>  <a_heavy>
5

>  <logP>
0.255

>  <logS>
-0.27677

>  <TPSA>
23.790001

>  <Weight>
67.090996

$$$$
Z415933552
  MOE2024           3D

 10 10  0  0  0  0  0  0  0  0999 V2000
    1.6610    2.9530   -0.9600 O   0  0  0  0  0  0  0  0  0  0  0  0
    0.7820    2.0350   -0.2500 S   0  0  0  0  0  0  0  0  0  0  0  0
   -0.1420    2.4600    0.7940 O   0  0  0  0  0  0  0  0  0  0  0  0
    1.6720    0.5900    0.2520 C   0  0  0  0  0  0  0  0  0  0  0  0
    1.8300    0.4750    1.3090 H   0  0  0  0  0  0  0  0  0  0  0  0
    2.5310    0.3540   -0.3510 H   0  0  0  0  0  0  0  0  0  0  0  0
    0.4020   -0.1450   -0.2620 C   0  0  0  0  0  0  0  0  0  0  0  0
   -0.3750   -0.2180    0.4800 H   0  0  0  0  0  0  0  0  0  0  0  0
    0.6080   -1.0810   -0.7500 H   0  0  0  0  0  0  0  0  0  0  0  0
    0.1140    0.9400   -1.2420 N   0  5  0  0  0  0  0  0  0  0  0  0
  1  2  2  0  0  0  0
  2  3  2  0  0  0  0
  2  4  1  0  0  0  0
  2 10  1  0  0  0  0
  4  5  1  0  0  0  0
  4  6  1  0  0  0  0
  4  7  1  0  0  0  0
  7  8  1  0  0  0  0
  7  9  1  0  0  0  0
  7 10  1  0  0  0  0
M  CHG  1  10  -1
M  END
>  <Catalog ID>
Z415933552

>  <a_acc>
0

>  <a_don>
0

>  <a_heavy>
6

>  <logP>
-1.005

>  <logS>
0.42776999

>  <TPSA>
34.139999

>  <Weight>
106.125

$$$$
Z1238546206
  MOE2024           3D

 12 12  0  0  0  0  0  0  0  0999 V2000
    1.3460    2.6080   -1.3660 O   0  0  0  0  0  0  0  0  0  0  0  0
    0.8550    2.1930   -0.0690 S   0  0  0  0  0  0  0  0  0  0  0  0
    0.4640    3.1250    0.9660 O   0  0  0  0  0  0  0  0  0  0  0  0
    1.8150    0.8420    0.5860 C   0  0  0  0  0  0  0  0  0  0  0  0
    1.6520    0.6670    1.6350 H   0  0  0  0  0  0  0  0  0  0  0  0
    2.8530    0.8410    0.3080 H   0  0  0  0  0  0  0  0  0  0  0  0
    0.9390   -0.1150   -0.2950 C   0  0  0  0  0  0  0  0  0  0  0  0
    0.7650   -1.0730    0.1620 H   0  0  0  0  0  0  0  0  0  0  0  0
    1.3190   -0.2040   -1.2980 H   0  0  0  0  0  0  0  0  0  0  0  0
   -0.3000    0.8430   -0.2150 C   0  0  0  0  0  0  0  0  0  0  0  0
   -0.8930    0.8440   -1.1110 H   0  0  0  0  0  0  0  0  0  0  0  0
   -0.8720    0.6690    0.6790 H   0  0  0  0  0  0  0  0  0  0  0  0
  1  2  2  0  0  0  0
  2  3  2  0  0  0  0
  2  4  1  0  0  0  0
  2 10  1  0  0  0  0
  4  5  1  0  0  0  0
  4  6  1  0  0  0  0
  4  7  1  0  0  0  0
  7  8  1  0  0  0  0
  7  9  1  0  0  0  0
  7 10  1  0  0  0  0
 10 11  1  0  0  0  0
 10 12  1  0  0  0  0
M  END
>  <Catalog ID>
Z1238546206

>  <a_acc>
2

>  <a_don>
0

>  <a_heavy>
6

>  <logP>
-0.46000001

>  <logS>
-0.05232

>  <TPSA>
34.139999

>  <Weight>
106.145

$$$$
Z800187814
  MOE2024           3D

 12 12  0  0  0  0  0  0  0  0999 V2000
    1.3210    3.6170    0.1260 N   0  0  0  0  0  0  0  0  0  0  0  0
    0.4680    4.1040   -0.1700 H   0  0  0  0  0  0  0  0  0  0  0  0
    2.1700    4.1120   -0.1680 H   0  0  0  0  0  0  0  0  0  0  0  0
    1.3270    2.2190    0.0820 C   0  0  0  0  0  0  0  0  0  0  0  0
    2.5010    1.4800    0.0550 C   0  0  0  0  0  0  0  0  0  0  0  0
    3.4420    1.9990    0.0800 H   0  0  0  0  0  0  0  0  0  0  0  0
    2.5270    0.1660   -0.0010 N   0  0  0  0  0  0  0  0  0  0  0  0
    1.3380   -0.4180   -0.0210 C   0  0  0  0  0  0  0  0  0  0  0  0
    1.3430   -1.4950   -0.0660 H   0  0  0  0  0  0  0  0  0  0  0  0
    0.1450    0.1560    0.0080 N   0  0  0  0  0  0  0  0  0  0  0  0
    0.1600    1.4700    0.0630 C   0  0  0  0  0  0  0  0  0  0  0  0
   -0.7850    1.9810    0.0960 H   0  0  0  0  0  0  0  0  0  0  0  0
  1  2  1  0  0  0  0
  1  3  1  0  0  0  0
  1  4  1  0  0  0  0
  4  5  1  0  0  0  0
  4 11  2  0  0  0  0
  5  6  1  0  0  0  0
  5  7  2  0  0  0  0
  7  8  1  0  0  0  0
  8  9  1  0  0  0  0
  8 10  2  0  0  0  0
 10 11  1  0  0  0  0
 11 12  1  0  0  0  0
M  END
>  <Catalog ID>
Z800187814

>  <a_acc>
2

>  <a_don>
1

>  <a_heavy>
7

>  <logP>
-1.1440001

>  <logS>
-0.0086200004

>  <TPSA>
51.799999

>  <Weight>
95.104996

$$$$
Z104472846
  MOE2024           3D

 13 13  0  0  0  0  0  0  0  0999 V2000
    0.9650    3.2100   -0.0010 O   0  0  0  0  0  0  0  0  0  0  0  0
    1.0210    2.0080   -0.0010 C   0  0  0  0  0  0  0  0  0  0  0  0
    2.2980    1.2170    0.0000 C   0  0  0  0  0  0  0  0  0  0  0  0
    2.8670    1.4510    0.8800 H   0  0  0  0  0  0  0  0  0  0  0  0
    2.8670    1.4500   -0.8810 H   0  0  0  0  0  0  0  0  0  0  0  0
    1.8280   -0.2540    0.0000 C   0  0  0  0  0  0  0  0  0  0  0  0
    2.1900   -0.7680    0.8730 H   0  0  0  0  0  0  0  0  0  0  0  0
    2.1900   -0.7680   -0.8730 H   0  0  0  0  0  0  0  0  0  0  0  0
    0.2900   -0.2360    0.0000 C   0  0  0  0  0  0  0  0  0  0  0  0
   -0.1070   -0.7070    0.8830 H   0  0  0  0  0  0  0  0  0  0  0  0
   -0.1070   -0.7080   -0.8830 H   0  0  0  0  0  0  0  0  0  0  0  0
   -0.0390    1.1920   -0.0010 N   0  0  0  0  0  0  0  0  0  0  0  0
   -0.9960    1.5490   -0.0010 H   0  0  0  0  0  0  0  0  0  0  0  0
  1  2  2  0  0  0  0
  2  3  1  0  0  0  0
  2 12  1  0  0  0  0
  3  4  1  0  0  0  0
  3  5  1  0  0  0  0
  3  6  1  0  0  0  0
  6  7  1  0  0  0  0
  6  8  1  0  0  0  0
  6  9  1  0  0  0  0
  9 10  1  0  0  0  0
  9 11  1  0  0  0  0
  9 12  1  0  0  0  0
 12 13  1  0  0  0  0
M  END
>  <Catalog ID>
Z104472846

>  <a_acc>
1

>  <a_don>
1

>  <a_heavy>
6

>  <logP>
-0.405

>  <logS>
0.0043600001

>  <TPSA>
29.1

>  <Weight>
85.105995

$$$$
Z8173529772
  MOE2024           3D

 13 13  0  0  0  0  0  0  0  0999 V2000
    1.3680    3.5260   -0.0080 O   0  0  0  0  0  0  0  0  0  0  0  0
    0.4800    3.9220   -0.0070 H   0  0  0  0  0  0  0  0  0  0  0  0
    1.3440    2.1850   -0.0050 C   0  0  0  0  0  0  0  0  0  0  0  0
    2.5390    1.4870   -0.0060 C   0  0  0  0  0  0  0  0  0  0  0  0
    3.4680    2.0290   -0.0100 H   0  0  0  0  0  0  0  0  0  0  0  0
    2.5270    0.1030   -0.0040 C   0  0  0  0  0  0  0  0  0  0  0  0
    3.4540   -0.4420   -0.0050 H   0  0  0  0  0  0  0  0  0  0  0  0
    1.3200   -0.5770    0.0010 C   0  0  0  0  0  0  0  0  0  0  0  0
    1.3110   -1.6530    0.0030 H   0  0  0  0  0  0  0  0  0  0  0  0
    0.1250    0.1250    0.0020 C   0  0  0  0  0  0  0  0  0  0  0  0
   -0.8100   -0.4090    0.0050 H   0  0  0  0  0  0  0  0  0  0  0  0
    0.1340    1.5090   -0.0010 C   0  0  0  0  0  0  0  0  0  0  0  0
   -0.7950    2.0500    0.0000 H   0  0  0  0  0  0  0  0  0  0  0  0
  1  2  1  0  0  0  0
  1  3  1  0  0  0  0
  3  4  1  0  0  0  0
  3 12  2  0  0  0  0
  4  5  1  0  0  0  0
  4  6  2  0  0  0  0
  6  7  1  0  0  0  0
  6  8  1  0  0  0  0
  8  9  1  0  0  0  0
  8 10  2  0  0  0  0
 10 11  1  0  0  0  0
 10 12  1  0  0  0  0
 12 13  1  0  0  0  0
M  END
>  <Catalog ID>
Z8173529772

>  <a_acc>
1

>  <a_don>
1

>  <a_heavy>
7

>  <logP>
1.598

>  <logS>
-1.02293

>  <TPSA>
20.23

>  <Weight>
94.112999

$$$$
Z104472278
  MOE2024           3D

 13 13  0  0  0  0  0  0  0  0999 V2000
    1.3760    3.4990   -0.0520 N   0  0  0  0  0  0  0  0  0  0  0  0
    0.4270    3.8520    0.0830 H   0  0  0  0  0  0  0  0  0  0  0  0
    2.0540    3.9690    0.5440 H   0  0  0  0  0  0  0  0  0  0  0  0
    1.3990    2.1440   -0.0330 C   0  0  0  0  0  0  0  0  0  0  0  0
    2.5960    1.4390   -0.0870 C   0  0  0  0  0  0  0  0  0  0  0  0
    3.5210    1.9780   -0.1620 H   0  0  0  0  0  0  0  0  0  0  0  0
    2.5770    0.0640   -0.0500 C   0  0  0  0  0  0  0  0  0  0  0  0
    3.4810   -0.5180   -0.0910 H   0  0  0  0  0  0  0  0  0  0  0  0
    1.3350   -0.5340    0.0380 C   0  0  0  0  0  0  0  0  0  0  0  0
    1.2450   -1.6050    0.0690 H   0  0  0  0  0  0  0  0  0  0  0  0
    0.2030    0.2630    0.0860 C   0  0  0  0  0  0  0  0  0  0  0  0
   -0.7590   -0.2150    0.1530 H   0  0  0  0  0  0  0  0  0  0  0  0
    0.2070    1.5860    0.0550 N   0  0  0  0  0  0  0  0  0  0  0  0
  1  2  1  0  0  0  0
  1  3  1  0  0  0  0
  1  4  1  0  0  0  0
  4  5  1  0  0  0  0
  4 13  2  0  0  0  0
  5  6  1  0  0  0  0
  5  7  2  0  0  0  0
  7  8  1  0  0  0  0
  7  9  1  0  0  0  0
  9 10  1  0  0  0  0
  9 11  2  0  0  0  0
 11 12  1  0  0  0  0
 11 13  1  0  0  0  0
M  END
>  <Catalog ID>
Z104472278

>  <a_acc>
1

>  <a_don>
1

>  <a_heavy>
7

>  <logP>
0.40700001

>  <logS>
-0.15888

>  <TPSA>
38.91

>  <Weight>
94.116997

$$$$
Z56896153
  MOE2024           3D

 10  9  0  0  0  0  0  0  0  0999 V2000
    0.8990    3.5660   -0.0160 N   0  0  0  0  0  0  0  0  0  0  0  0
    1.4750    2.5860   -0.0130 C   0  0  0  0  0  0  0  0  0  0  0  0
    2.3230    1.3640   -0.0090 C   0  0  0  0  0  0  0  0  0  0  0  0
    2.9520    1.3870   -0.8780 H   0  0  0  0  0  0  0  0  0  0  0  0
    2.9430    1.3860    0.8650 H   0  0  0  0  0  0  0  0  0  0  0  0
    1.5270    0.0740   -0.0140 C   0  0  0  0  0  0  0  0  0  0  0  0
    2.1820   -1.1050   -0.0230 N   0  0  0  0  0  0  0  0  0  0  0  0
    1.6300   -1.9670   -0.0250 H   0  0  0  0  0  0  0  0  0  0  0  0
    3.1950   -1.2250   -0.0260 H   0  0  0  0  0  0  0  0  0  0  0  0
    0.3250    0.0710   -0.0100 O   0  0  0  0  0  0  0  0  0  0  0  0
  1  2  3  0  0  0  0
  2  3  1  0  0  0  0
  3  4  1  0  0  0  0
  3  5  1  0  0  0  0
  3  6  1  0  0  0  0
  6  7  1  0  0  0  0
  6 10  2  0  0  0  0
  7  8  1  0  0  0  0
  7  9  1  0  0  0  0
M  END
>  <Catalog ID>
Z56896153

>  <a_acc>
2

>  <a_don>
1

>  <a_heavy>
6

>  <logP>
-1.363

>  <logS>
-0.12839

>  <TPSA>
66.879997

>  <Weight>
84.077995

$$$$
Z1741961236
  MOE2024           3D

 12 12  0  0  0  0  0  0  0  0999 V2000
    3.7640    0.4020   -1.5950 N   0  0  0  0  0  0  0  0  0  0  0  0
    3.9490    1.4030   -1.6400 H   0  0  0  0  0  0  0  0  0  0  0  0
    3.2430    0.0240   -2.3850 H   0  0  0  0  0  0  0  0  0  0  0  0
    4.1670   -0.3480   -0.5900 C   0  0  0  0  0  0  0  0  0  0  0  0
    3.9530   -1.6460   -0.4770 N   0  0  0  0  0  0  0  0  0  0  0  0
    3.4520   -2.2290   -1.1470 H   0  0  0  0  0  0  0  0  0  0  0  0
    4.5260   -2.0710    0.7070 C   0  0  0  0  0  0  0  0  0  0  0  0
    4.4930   -3.0970    1.0410 H   0  0  0  0  0  0  0  0  0  0  0  0
    5.0820   -0.9930    1.2880 C   0  0  0  0  0  0  0  0  0  0  0  0
    5.6210   -0.9110    2.2190 H   0  0  0  0  0  0  0  0  0  0  0  0
    4.8460    0.0850    0.4560 N   0  3  0  0  0  0  0  0  0  0  0  0
    5.1430    1.0470    0.6190 H   0  0  0  0  0  0  0  0  0  0  0  0
  1  2  1  0  0  0  0
  1  3  1  0  0  0  0
  1  4  1  0  0  0  0
  4  5  1  0  0  0  0
  4 11  2  0  0  0  0
  5  6  1  0  0  0  0
  5  7  1  0  0  0  0
  7  8  1  0  0  0  0
  7  9  2  0  0  0  0
  9 10  1  0  0  0  0
  9 11  1  0  0  0  0
 11 12  1  0  0  0  0
M  CHG  1  11   1
M  END
>  <Catalog ID>
Z1741961236

>  <a_acc>
0

>  <a_don>
0

>  <a_heavy>
6

>  <logP>
-0.113

>  <logS>
-0.28733

>  <TPSA>
55.950001

>  <Weight>
84.101997

$$$$
Z203045036
  MOE2024           3D

 12 12  0  0  0  0  0  0  0  0999 V2000
    1.2310    3.4080    0.0070 O   0  0  0  0  0  0  0  0  0  0  0  0
    1.3040    2.1890    0.0030 C   0  0  0  0  0  0  0  0  0  0  0  0
    2.5350    1.4780   -0.0040 C   0  0  0  0  0  0  0  0  0  0  0  0
    3.4290    2.0710   -0.0050 H   0  0  0  0  0  0  0  0  0  0  0  0
    2.5570    0.1160   -0.0070 C   0  0  0  0  0  0  0  0  0  0  0  0
    3.4790   -0.4400   -0.0120 H   0  0  0  0  0  0  0  0  0  0  0  0
    1.3290   -0.5940   -0.0040 C   0  0  0  0  0  0  0  0  0  0  0  0
    1.3580   -1.6700   -0.0070 H   0  0  0  0  0  0  0  0  0  0  0  0
    0.1490    0.0840    0.0020 C   0  0  0  0  0  0  0  0  0  0  0  0
   -0.8040   -0.4190    0.0040 H   0  0  0  0  0  0  0  0  0  0  0  0
    0.1470    1.4630    0.0050 N   0  0  0  0  0  0  0  0  0  0  0  0
   -0.7090    2.0190    0.0100 H   0  0  0  0  0  0  0  0  0  0  0  0
  1  2  2  0  0  0  0
  2  3  1  0  0  0  0
  2 11  1  0  0  0  0
  3  4  1  0  0  0  0
  3  5  2  0  0  0  0
  5  6  1  0  0  0  0
  5  7  1  0  0  0  0
  7  8  1  0  0  0  0
  7  9  2  0  0  0  0
  9 10  1  0  0  0  0
  9 11  1  0  0  0  0
 11 12  1  0  0  0  0
M  END
>  <Catalog ID>
Z203045036

>  <a_acc>
2

>  <a_don>
2

>  <a_heavy>
7

>  <logP>
-0.067000002

>  <logS>
-0.69033998

>  <TPSA>
29.1

>  <Weight>
95.100998

$$$$
Z1415893881
  MOE2024           3D

 16 16  0  0  0  0  0  0  0  0999 V2000
    7.7030    0.1410   -1.4730 N   0  0  0  0  0  0  0  0  0  0  0  0
    8.4090    0.7980   -1.8210 H   0  0  0  0  0  0  0  0  0  0  0  0
    7.8680   -0.8370   -1.7170 H   0  0  0  0  0  0  0  0  0  0  0  0
    6.6780    0.6120   -0.7300 C   0  0  0  0  0  0  0  0  0  0  0  0
    6.5940    1.7910   -0.4900 O   0  0  0  0  0  0  0  0  0  0  0  0
    5.5560   -0.2880   -0.1460 C   0  0  0  0  0  0  0  0  0  0  0  0
    4.4230    0.4950    0.3900 N   0  3  0  0  0  0  0  0  0  0  0  0
    3.7630    0.7250   -0.3580 H   0  0  0  0  0  0  0  0  0  0  0  0
    4.8190    1.3880    0.7200 H   0  0  0  0  0  0  0  0  0  0  0  0
    3.9470    0.0160    1.1570 H   0  0  0  0  0  0  0  0  0  0  0  0
    5.9240   -1.5150    0.6280 C   0  0  0  0  0  0  0  0  0  0  0  0
    5.3820   -1.7840    1.5190 H   0  0  0  0  0  0  0  0  0  0  0  0
    6.9580   -1.8160    0.6800 H   0  0  0  0  0  0  0  0  0  0  0  0
    5.2320   -1.6430   -0.6940 C   0  0  0  0  0  0  0  0  0  0  0  0
    5.8010   -2.0340   -1.5200 H   0  0  0  0  0  0  0  0  0  0  0  0
    4.2140   -1.9920   -0.7060 H   0  0  0  0  0  0  0  0  0  0  0  0
  1  2  1  0  0  0  0
  1  3  1  0  0  0  0
  1  4  1  0  0  0  0
  4  5  2  0  0  0  0
  4  6  1  0  0  0  0
  6  7  1  0  0  0  0
  6 11  1  0  0  0  0
  6 14  1  0  0  0  0
  7  8  1  0  0  0  0
  7  9  1  0  0  0  0
  7 10  1  0  0  0  0
 11 12  1  0  0  0  0
 11 13  1  0  0  0  0
 11 14  1  0  0  0  0
 14 15  1  0  0  0  0
 14 16  1  0  0  0  0
M  CHG  1   7   1
M  END
>  <Catalog ID>
Z1415893881

>  <a_acc>
1

>  <a_don>
1

>  <a_heavy>
7

>  <logP>
-1.136

>  <logS>
-0.08845

>  <TPSA>
70.730003

>  <Weight>
101.129

$$$$
Z57131035
  MOE2024           3D

 11 11  0  0  0  0  0  0  0  0999 V2000
    0.9080    3.1840   -0.0060 O   0  0  0  0  0  0  0  0  0  0  0  0
    0.9850    1.9830   -0.0010 C   0  0  0  0  0  0  0  0  0  0  0  0
    2.2730    1.1680    0.0040 C   0  0  0  0  0  0  0  0  0  0  0  0
    2.8480    1.3610    0.8920 H   0  0  0  0  0  0  0  0  0  0  0  0
    2.8480    1.3520   -0.8860 H   0  0  0  0  0  0  0  0  0  0  0  0
    1.7110   -0.2100    0.0110 N   0  0  0  0  0  0  0  0  0  0  0  0
    2.2460   -1.0800   -0.0030 H   0  0  0  0  0  0  0  0  0  0  0  0
    0.3650   -0.1580    0.0060 C   0  0  0  0  0  0  0  0  0  0  0  0
   -0.3650   -1.1190    0.0030 O   0  0  0  0  0  0  0  0  0  0  0  0
   -0.0590    1.1240    0.0020 N   0  0  0  0  0  0  0  0  0  0  0  0
   -1.0380    1.3860   -0.0030 H   0  0  0  0  0  0  0  0  0  0  0  0
  1  2  2  0  0  0  0
  2  3  1  0  0  0  0
  2 10  1  0  0  0  0
  3  4  1  0  0  0  0
  3  5  1  0  0  0  0
  3  6  1  0  0  0  0
  6  7  1  0  0  0  0
  6  8  1  0  0  0  0
  8  9  2  0  0  0  0
  8 10  1  0  0  0  0
 10 11  1  0  0  0  0
M  END
>  <Catalog ID>
Z57131035

>  <a_acc>
2

>  <a_don>
2

>  <a_heavy>
7

>  <logP>
-1.314

>  <logS>
-0.14048

>  <TPSA>
58.200001

>  <Weight>
100.077

$$$$
Z56968535
  MOE2024           3D

 15 15  0  0  0  0  0  0  0  0999 V2000
    1.3220    3.4320    0.1470 O   0  0  0  0  0  0  0  0  0  0  0  0
    1.3220    2.2280    0.0880 C   0  0  0  0  0  0  0  0  0  0  0  0
    2.6440    1.4580   -0.0650 C   0  0  0  0  0  0  0  0  0  0  0  0
    3.3970    1.9470    0.5270 H   0  0  0  0  0  0  0  0  0  0  0  0
    2.9460    1.5230   -1.0950 H   0  0  0  0  0  0  0  0  0  0  0  0
    2.5670    0.0240    0.3290 N   0  0  0  0  0  0  0  0  0  0  0  0
    2.4400   -0.0050    1.3490 H   0  0  0  0  0  0  0  0  0  0  0  0
    1.3910   -0.6080   -0.2900 C   0  0  0  0  0  0  0  0  0  0  0  0
    1.3740   -1.6540   -0.0350 H   0  0  0  0  0  0  0  0  0  0  0  0
    1.4750   -0.5380   -1.3620 H   0  0  0  0  0  0  0  0  0  0  0  0
    0.0680    0.0510    0.1630 C   0  0  0  0  0  0  0  0  0  0  0  0
   -0.1700   -0.2800    1.1590 H   0  0  0  0  0  0  0  0  0  0  0  0
   -0.7260   -0.2630   -0.4920 H   0  0  0  0  0  0  0  0  0  0  0  0
    0.1570    1.5360    0.1570 N   0  0  0  0  0  0  0  0  0  0  0  0
   -0.6990    2.0780    0.2840 H   0  0  0  0  0  0  0  0  0  0  0  0
  1  2  2  0  0  0  0
  2  3  1  0  0  0  0
  2 14  1  0  0  0  0
  3  4  1  0  0  0  0
  3  5  1  0  0  0  0
  3  6  1  0  0  0  0
  6  7  1  0  0  0  0
  6  8  1  0  0  0  0
  8  9  1  0  0  0  0
  8 10  1  0  0  0  0
  8 11  1  0  0  0  0
 11 12  1  0  0  0  0
 11 13  1  0  0  0  0
 11 14  1  0  0  0  0
 14 15  1  0  0  0  0
M  END
>  <Catalog ID>
Z56968535

>  <a_acc>
2

>  <a_don>
2

>  <a_heavy>
7

>  <logP>
-1.326

>  <logS>
0.32111001

>  <TPSA>
41.130001

>  <Weight>
100.121

$$$$
Z2517097658
  MOE2024           3D

 14 14  0  0  0  0  0  0  0  0999 V2000
    0.2830   -3.3310   -0.0360 C   0  0  0  0  0  0  0  0  0  0  0  0
    1.3070   -3.0470   -0.1990 H   0  0  0  0  0  0  0  0  0  0  0  0
   -0.0550   -2.9340    0.9040 H   0  0  0  0  0  0  0  0  0  0  0  0
   -0.3280   -2.9440   -0.8310 H   0  0  0  0  0  0  0  0  0  0  0  0
    0.1730   -4.7980   -0.0100 N   0  0  0  0  0  0  0  0  0  0  0  0
    1.1530   -5.7210   -0.1520 C   0  0  0  0  0  0  0  0  0  0  0  0
    2.1790   -5.4430   -0.3130 H   0  0  0  0  0  0  0  0  0  0  0  0
    0.7400   -6.9470   -0.0740 N   0  0  0  0  0  0  0  0  0  0  0  0
   -0.5710   -6.8130    0.1330 C   0  0  0  0  0  0  0  0  0  0  0  0
   -1.3280   -7.9510    0.2590 N   0  0  0  0  0  0  0  0  0  0  0  0
   -1.8340   -8.0840   -0.6150 H   0  0  0  0  0  0  0  0  0  0  0  0
   -0.6440   -8.7090    0.3110 H   0  0  0  0  0  0  0  0  0  0  0  0
   -0.9490   -5.5220    0.1720 C   0  0  0  0  0  0  0  0  0  0  0  0
   -1.9250   -5.1020    0.3200 H   0  0  0  0  0  0  0  0  0  0  0  0
  1  2  1  0  0  0  0
  1  3  1  0  0  0  0
  1  4  1  0  0  0  0
  1  5  1  0  0  0  0
  5  6  1  0  0  0  0
  5 13  1  0  0  0  0
  6  7  1  0  0  0  0
  6  8  2  0  0  0  0
  8  9  1  0  0  0  0
  9 10  1  0  0  0  0
  9 13  2  0  0  0  0
 10 11  1  0  0  0  0
 10 12  1  0  0  0  0
 13 14  1  0  0  0  0
M  END
>  <Catalog ID>
Z2517097658

>  <a_acc>
1

>  <a_don>
1

>  <a_heavy>
7

>  <logP>
-0.236

>  <logS>
0.084749997

>  <TPSA>
43.84

>  <Weight>
97.121002

$$$$
Z104472264
  MOE2024           3D

 14 14  0  0  0  0  0  0  0  0999 V2000
   -0.3120    3.8540   -0.5260 O   0  5  0  0  0  0  0  0  0  0  0  0
    0.7720    3.3100   -0.2840 C   0  0  0  0  0  0  0  0  0  0  0  0
    1.8500    3.8650   -0.5240 O   0  0  0  0  0  0  0  0  0  0  0  0
    0.7780    1.9250    0.3490 C   0  0  0  0  0  0  0  0  0  0  0  0
    0.7690    1.9560    1.4260 H   0  0  0  0  0  0  0  0  0  0  0  0
    1.8570    0.9500   -0.1970 C   0  0  0  0  0  0  0  0  0  0  0  0
    2.7030    0.8260    0.4560 H   0  0  0  0  0  0  0  0  0  0  0  0
    2.1260    1.1430   -1.2210 H   0  0  0  0  0  0  0  0  0  0  0  0
    0.7940   -0.1720   -0.0670 C   0  0  0  0  0  0  0  0  0  0  0  0
    0.7900   -0.6310    0.9070 H   0  0  0  0  0  0  0  0  0  0  0  0
    0.8050   -0.8790   -0.8780 H   0  0  0  0  0  0  0  0  0  0  0  0
   -0.2800    0.9360   -0.2130 C   0  0  0  0  0  0  0  0  0  0  0  0
   -0.5360    1.1260   -1.2420 H   0  0  0  0  0  0  0  0  0  0  0  0
   -1.1340    0.8010    0.4260 H   0  0  0  0  0  0  0  0  0  0  0  0
  1  2  1  0  0  0  0
  2  3  2  0  0  0  0
  2  4  1  0  0  0  0
  4  5  1  0  0  0  0
  4  6  1  0  0  0  0
  4 12  1  0  0  0  0
  6  7  1  0  0  0  0
  6  8  1  0  0  0  0
  6  9  1  0  0  0  0
  9 10  1  0  0  0  0
  9 11  1  0  0  0  0
  9 12  1  0  0  0  0
 12 13  1  0  0  0  0
 12 14  1  0  0  0  0
M  CHG  1   1  -1
M  END
>  <Catalog ID>
Z104472264

>  <a_acc>
0

>  <a_don>
0

>  <a_heavy>
7

>  <logP>
0.83499998

>  <logS>
-0.67091

>  <TPSA>
40.130001

>  <Weight>
99.109001

$$$$
Z2587654886
  MOE2024           3D

 13 13  0  0  0  0  0  0  0  0999 V2000
   -0.0660    3.9000    0.2190 O   0  0  0  0  0  0  0  0  0  0  0  0
   -0.1150    3.5230    1.1190 H   0  0  0  0  0  0  0  0  0  0  0  0
    1.1160    3.5010   -0.3610 C   0  0  0  0  0  0  0  0  0  0  0  0
    1.9330    3.9700    0.1620 H   0  0  0  0  0  0  0  0  0  0  0  0
    1.1150    3.8150   -1.3910 H   0  0  0  0  0  0  0  0  0  0  0  0
    1.1720    1.9990   -0.2370 C   0  0  0  0  0  0  0  0  0  0  0  0
    2.1040    1.1960    0.3210 C   0  0  0  0  0  0  0  0  0  0  0  0
    3.0270    1.4560    0.8090 H   0  0  0  0  0  0  0  0  0  0  0  0
    1.6190   -0.0940    0.1340 C   0  0  0  0  0  0  0  0  0  0  0  0
    2.1220   -0.9890    0.4620 H   0  0  0  0  0  0  0  0  0  0  0  0
    0.4790   -0.1060   -0.4880 N   0  0  0  0  0  0  0  0  0  0  0  0
    0.2040    1.1930   -0.7170 N   0  0  0  0  0  0  0  0  0  0  0  0
   -0.6560    1.5050   -1.1870 H   0  0  0  0  0  0  0  0  0  0  0  0
  1  2  1  0  0  0  0
  1  3  1  0  0  0  0
  3  4  1  0  0  0  0
  3  5  1  0  0  0  0
  3  6  1  0  0  0  0
  6  7  2  0  0  0  0
  6 12  1  0  0  0  0
  7  8  1  0  0  0  0
  7  9  1  0  0  0  0
  9 10  1  0  0  0  0
  9 11  2  0  0  0  0
 11 12  1  0  0  0  0
 12 13  1  0  0  0  0
M  END
>  <Catalog ID>
Z2587654886

>  <a_acc>
3

>  <a_don>
3

>  <a_heavy>
7

>  <logP>
-0.059

>  <logS>
0.25514001

>  <TPSA>
48.91

>  <Weight>
98.104996

$$$$
Z1245537944
  MOE2024           3D

 17 17  0  0  0  0  0  0  0  0999 V2000
    1.3060    2.2430   -0.2290 C   0  0  0  0  0  0  0  0  0  0  0  0
    1.2430    2.4200   -1.2910 H   0  0  0  0  0  0  0  0  0  0  0  0
    1.3590    3.2060    0.2530 H   0  0  0  0  0  0  0  0  0  0  0  0
    2.6120    1.4610    0.0600 C   0  0  0  0  0  0  0  0  0  0  0  0
    3.2650    2.0620    0.6710 H   0  0  0  0  0  0  0  0  0  0  0  0
    3.1260    1.2940   -0.8720 H   0  0  0  0  0  0  0  0  0  0  0  0
    2.3930    0.1580    0.7210 N   0  0  0  0  0  0  0  0  0  0  0  0
    2.1830    0.2720    1.7230 H   0  0  0  0  0  0  0  0  0  0  0  0
    1.3740   -0.6670    0.0420 C   0  0  0  0  0  0  0  0  0  0  0  0
    1.1550   -1.5290    0.6500 H   0  0  0  0  0  0  0  0  0  0  0  0
    1.7880   -1.0370   -0.8820 H   0  0  0  0  0  0  0  0  0  0  0  0
    0.0610    0.0930   -0.2750 C   0  0  0  0  0  0  0  0  0  0  0  0
   -0.7680   -0.4430    0.1590 H   0  0  0  0  0  0  0  0  0  0  0  0
   -0.0820    0.0960   -1.3430 H   0  0  0  0  0  0  0  0  0  0  0  0
    0.0840    1.5040    0.2350 N   0  3  0  0  0  0  0  0  0  0  0  0
    0.1270    1.4570    1.2590 H   0  0  0  0  0  0  0  0  0  0  0  0
   -0.7740    2.0070   -0.0240 H   0  0  0  0  0  0  0  0  0  0  0  0
  1  2  1  0  0  0  0
  1  3  1  0  0  0  0
  1  4  1  0  0  0  0
  1 15  1  0  0  0  0
  4  5  1  0  0  0  0
  4  6  1  0  0  0  0
  4  7  1  0  0  0  0
  7  8  1  0  0  0  0
  7  9  1  0  0  0  0
  9 10  1  0  0  0  0
  9 11  1  0  0  0  0
  9 12  1  0  0  0  0
 12 13  1  0  0  0  0
 12 14  1  0  0  0  0
 12 15  1  0  0  0  0
 15 16  1  0  0  0  0
 15 17  1  0  0  0  0
M  CHG  1  15   1
M  END
>  <Catalog ID>
Z1245537944

>  <a_acc>
1

>  <a_don>
1

>  <a_heavy>
6

>  <logP>
-0.84399998

>  <logS>
0.75112998

>  <TPSA>
28.639999

>  <Weight>
87.145996

$$$$
Z56761437
  MOE2024           3D

 10 10  0  0  0  0  0  0  0  0999 V2000
    1.0560    3.4640   -0.0010 C   0  0  0  0  0  0  0  0  0  0  0  0
    2.0580    3.8540    0.0030 H   0  0  0  0  0  0  0  0  0  0  0  0
    0.5370    3.8230    0.8690 H   0  0  0  0  0  0  0  0  0  0  0  0
    0.5450    3.8220   -0.8770 H   0  0  0  0  0  0  0  0  0  0  0  0
    1.0580    1.9480   -0.0010 C   0  0  0  0  0  0  0  0  0  0  0  0
    2.1320    1.1810    0.0070 N   0  0  0  0  0  0  0  0  0  0  0  0
    3.1140    1.4640    0.0140 H   0  0  0  0  0  0  0  0  0  0  0  0
    1.7390   -0.0720    0.0050 N   0  0  0  0  0  0  0  0  0  0  0  0
    0.4550   -0.0410   -0.0040 N   0  0  0  0  0  0  0  0  0  0  0  0
    0.0130    1.2150   -0.0080 N   0  0  0  0  0  0  0  0  0  0  0  0
  1  2  1  0  0  0  0
  1  3  1  0  0  0  0
  1  4  1  0  0  0  0
  1  5  1  0  0  0  0
  5  6  1  0  0  0  0
  5 10  2  0  0  0  0
  6  7  1  0  0  0  0
  6  8  1  0  0  0  0
  8  9  2  0  0  0  0
  9 10  1  0  0  0  0
M  END
>  <Catalog ID>
Z56761437

>  <a_acc>
4

>  <a_don>
3

>  <a_heavy>
6

>  <logP>
-0.38999999

>  <logS>
0.67224997

>  <TPSA>
54.459999

>  <Weight>
84.082001

$$$$
Z57834050
  MOE2024           3D

 15 15  0  0  0  0  0  0  0  0999 V2000
    1.0580    2.0680    0.0000 C   0  0  0  0  0  0  0  0  0  0  0  0
    1.0440    2.7010   -0.8710 H   0  0  0  0  0  0  0  0  0  0  0  0
    1.0440    2.7010    0.8710 H   0  0  0  0  0  0  0  0  0  0  0  0
    2.2940    1.1710    0.0000 C   0  0  0  0  0  0  0  0  0  0  0  0
    2.9000    1.3550    0.8710 H   0  0  0  0  0  0  0  0  0  0  0  0
    2.9000    1.3550   -0.8710 H   0  0  0  0  0  0  0  0  0  0  0  0
    1.8140   -0.2720    0.0000 C   0  0  0  0  0  0  0  0  0  0  0  0
    2.1800   -0.7840    0.8770 H   0  0  0  0  0  0  0  0  0  0  0  0
    2.1770   -0.7830   -0.8780 H   0  0  0  0  0  0  0  0  0  0  0  0
    0.3290   -0.2370    0.0020 N   0  3  0  0  0  0  0  0  0  0  0  0
   -0.0280   -0.7290    0.8310 H   0  0  0  0  0  0  0  0  0  0  0  0
   -0.0310   -0.7320   -0.8230 H   0  0  0  0  0  0  0  0  0  0  0  0
   -0.1660    1.1640    0.0000 C   0  0  0  0  0  0  0  0  0  0  0  0
   -0.7640    1.3510   -0.8780 H   0  0  0  0  0  0  0  0  0  0  0  0
   -0.7660    1.3530    0.8770 H   0  0  0  0  0  0  0  0  0  0  0  0
  1  2  1  0  0  0  0
  1  3  1  0  0  0  0
  1  4  1  0  0  0  0
  1 13  1  0  0  0  0
  4  5  1  0  0  0  0
  4  6  1  0  0  0  0
  4  7  1  0  0  0  0
  7  8  1  0  0  0  0
  7  9  1  0  0  0  0
  7 10  1  0  0  0  0
 10 11  1  0  0  0  0
 10 12  1  0  0  0  0
 10 13  1  0  0  0  0
 13 14  1  0  0  0  0
 13 15  1  0  0  0  0
M  CHG  1  10   1
M  END
>  <Catalog ID>
Z57834050

>  <a_acc>
0

>  <a_don>
0

>  <a_heavy>
5

>  <logP>
0.43099999

>  <logS>
0.11453

>  <TPSA>
16.610001

>  <Weight>
72.130997

$$$$
Z955123660
  MOE2024           3D

 10  9  0  0  0  0  0  0  0  0999 V2000
    1.5000    2.5470    0.1630 N   0  3  0  0  0  0  0  0  0  0  0  0
    1.0560    2.8510   -0.7090 H   0  0  0  0  0  0  0  0  0  0  0  0
    2.0050    3.3150    0.6110 H   0  0  0  0  0  0  0  0  0  0  0  0
    0.7230    2.2320    0.7790 H   0  0  0  0  0  0  0  0  0  0  0  0
    2.3330    1.2970   -0.0430 C   0  0  0  0  0  0  0  0  0  0  0  0
    3.1580    1.2800    0.6470 H   0  0  0  0  0  0  0  0  0  0  0  0
    2.7210    1.2500   -1.0450 H   0  0  0  0  0  0  0  0  0  0  0  0
    1.5110    0.0370    0.2170 C   0  0  0  0  0  0  0  0  0  0  0  0
    1.9370   -1.0580   -0.1400 O   0  5  0  0  0  0  0  0  0  0  0  0
    0.4210    0.2250    0.7750 O   0  0  0  0  0  0  0  0  0  0  0  0
  1  2  1  0  0  0  0
  1  3  1  0  0  0  0
  1  4  1  0  0  0  0
  1  5  1  0  0  0  0
  5  6  1  0  0  0  0
  5  7  1  0  0  0  0
  5  8  1  0  0  0  0
  8  9  1  0  0  0  0
  8 10  2  0  0  0  0
M  CHG  1   1   1
M  CHG  1   9  -1
M  END
>  <Catalog ID>
Z955123660

>  <a_acc>
0

>  <a_don>
0

>  <a_heavy>
5

>  <logP>
-1

>  <logS>
0.4862

>  <TPSA>
67.769997

>  <Weight>
75.067001

$$$$
Z104479000
  MOE2024           3D

 13 13  0  0  0  0  0  0  0  0999 V2000
   -0.6300    3.6790   -0.2410 O   0  0  0  0  0  0  0  0  0  0  0  0
   -1.3520    3.0550   -0.4450 H   0  0  0  0  0  0  0  0  0  0  0  0
    0.5700    3.0040   -0.2900 C   0  0  0  0  0  0  0  0  0  0  0  0
    1.3240    3.6080    0.1860 H   0  0  0  0  0  0  0  0  0  0  0  0
    0.8280    2.8500   -1.3240 H   0  0  0  0  0  0  0  0  0  0  0  0
    0.3750    1.6740    0.4350 C   0  0  0  0  0  0  0  0  0  0  0  0
    0.2230    1.8150    1.4920 H   0  0  0  0  0  0  0  0  0  0  0  0
    1.1610    0.4650    0.0380 C   0  0  0  0  0  0  0  0  0  0  0  0
    1.5250   -0.1920    0.8100 H   0  0  0  0  0  0  0  0  0  0  0  0
    1.8320    0.5210   -0.8030 H   0  0  0  0  0  0  0  0  0  0  0  0
   -0.3180    0.5210   -0.2220 C   0  0  0  0  0  0  0  0  0  0  0  0
   -0.6520    0.6140   -1.2420 H   0  0  0  0  0  0  0  0  0  0  0  0
   -0.9720   -0.0940    0.3720 H   0  0  0  0  0  0  0  0  0  0  0  0
  1  2  1  0  0  0  0
  1  3  1  0  0  0  0
  3  4  1  0  0  0  0
  3  5  1  0  0  0  0
  3  6  1  0  0  0  0
  6  7  1  0  0  0  0
  6  8  1  0  0  0  0
  6 11  1  0  0  0  0
  8  9  1  0  0  0  0
  8 10  1  0  0  0  0
  8 11  1  0  0  0  0
 11 12  1  0  0  0  0
 11 13  1  0  0  0  0
M  END
>  <Catalog ID>
Z104479000

>  <a_acc>
1

>  <a_don>
1

>  <a_heavy>
5

>  <logP>
0.41499999

>  <logS>
-0.01671

>  <TPSA>
20.23

>  <Weight>
72.106995

$$$$
Z56866006
  MOE2024           3D

 10 10  0  0  0  0  0  0  0  0999 V2000
    0.8040    3.3280   -0.0740 N   0  0  0  0  0  0  0  0  0  0  0  0
    0.4150    3.7390    0.7770 H   0  0  0  0  0  0  0  0  0  0  0  0
    1.7330    3.7380   -0.2210 H   0  0  0  0  0  0  0  0  0  0  0  0
    0.9080    1.9570   -0.0160 C   0  0  0  0  0  0  0  0  0  0  0  0
    2.0230    1.3230    0.1290 N   0  0  0  0  0  0  0  0  0  0  0  0
    1.7270    0.0140    0.1450 N   0  0  0  0  0  0  0  0  0  0  0  0
    0.4540   -0.0870    0.0030 C   0  0  0  0  0  0  0  0  0  0  0  0
   -0.0970   -1.0100   -0.0310 H   0  0  0  0  0  0  0  0  0  0  0  0
   -0.1220    1.1150   -0.1030 N   0  0  0  0  0  0  0  0  0  0  0  0
   -1.0990    1.3630   -0.2510 H   0  0  0  0  0  0  0  0  0  0  0  0
  1  2  1  0  0  0  0
  1  3  1  0  0  0  0
  1  4  1  0  0  0  0
  4  5  2  0  0  0  0
  4  9  1  0  0  0  0
  5  6  1  0  0  0  0
  6  7  2  0  0  0  0
  7  8  1  0  0  0  0
  7  9  1  0  0  0  0
  9 10  1  0  0  0  0
M  END
>  <Catalog ID>
Z56866006

>  <a_acc>
3

>  <a_don>
4

>  <a_heavy>
6

>  <logP>
-0.72799999

>  <logS>
-0.30599999

>  <TPSA>
67.589996

>  <Weight>
84.082001

$$$$
Z104476284
  MOE2024           3D

 13 12  0  0  0  0  0  0  0  0999 V2000
    2.3440    3.7240   -0.1310 C   0  0  0  0  0  0  0  0  0  0  0  0
    2.7340    3.7840    0.8680 H   0  0  0  0  0  0  0  0  0  0  0  0
    1.7310    4.5880   -0.3130 H   0  0  0  0  0  0  0  0  0  0  0  0
    3.1520    3.7190   -0.8380 H   0  0  0  0  0  0  0  0  0  0  0  0
    1.5140    2.4740   -0.2860 C   0  0  0  0  0  0  0  0  0  0  0  0
    0.3790    2.5830   -0.6650 O   0  0  0  0  0  0  0  0  0  0  0  0
    2.1250    1.2860   -0.0230 N   0  0  0  0  0  0  0  0  0  0  0  0
    3.1220    1.3100    0.1350 H   0  0  0  0  0  0  0  0  0  0  0  0
    1.5680    0.0590    0.1370 C   0  0  0  0  0  0  0  0  0  0  0  0
    2.3170   -1.0160   -0.1350 N   0  0  0  0  0  0  0  0  0  0  0  0
    1.8560   -1.9220   -0.0420 H   0  0  0  0  0  0  0  0  0  0  0  0
    3.1060   -0.9910   -0.7750 H   0  0  0  0  0  0  0  0  0  0  0  0
    0.4520   -0.1110    0.5640 O   0  0  0  0  0  0  0  0  0  0  0  0
  1  2  1  0  0  0  0
  1  3  1  0  0  0  0
  1  4  1  0  0  0  0
  1  5  1  0  0  0  0
  5  6  2  0  0  0  0
  5  7  1  0  0  0  0
  7  8  1  0  0  0  0
  7  9  1  0  0  0  0
  9 10  1  0  0  0  0
  9 13  2  0  0  0  0
 10 11  1  0  0  0  0
 10 12  1  0  0  0  0
M  END
>  <Catalog ID>
Z104476284

>  <a_acc>
2

>  <a_don>
2

>  <a_heavy>
7

>  <logP>
-1.192

>  <logS>
-0.10499

>  <TPSA>
72.190002

>  <Weight>
102.09299

$$$$
Z1741968196
  MOE2024           3D

 12 12  0  0  0  0  0  0  0  0999 V2000
    1.3360    3.4230    0.0650 N   0  0  0  0  0  0  0  0  0  0  0  0
    0.4690    3.8590   -0.2330 H   0  0  0  0  0  0  0  0  0  0  0  0
    2.2020    3.8600   -0.2360 H   0  0  0  0  0  0  0  0  0  0  0  0
    1.3370    2.0900    0.0440 C   0  0  0  0  0  0  0  0  0  0  0  0
    2.5270    1.5150    0.0210 N   0  0  0  0  0  0  0  0  0  0  0  0
    2.5110    0.2030   -0.0040 C   0  0  0  0  0  0  0  0  0  0  0  0
    3.4560   -0.3130   -0.0160 H   0  0  0  0  0  0  0  0  0  0  0  0
    1.3370   -0.5130   -0.0160 C   0  0  0  0  0  0  0  0  0  0  0  0
    1.3370   -1.5860   -0.0360 H   0  0  0  0  0  0  0  0  0  0  0  0
    0.1630    0.2030   -0.0030 C   0  0  0  0  0  0  0  0  0  0  0  0
   -0.7820   -0.3130   -0.0130 H   0  0  0  0  0  0  0  0  0  0  0  0
    0.1460    1.5140    0.0230 N   0  0  0  0  0  0  0  0  0  0  0  0
  1  2  1  0  0  0  0
  1  3  1  0  0  0  0
  1  4  1  0  0  0  0
  4  5  1  0  0  0  0
  4 12  2  0  0  0  0
  5  6  2  0  0  0  0
  6  7  1  0  0  0  0
  6  8  1  0  0  0  0
  8  9  1  0  0  0  0
  8 10  2  0  0  0  0
 10 11  1  0  0  0  0
 10 12  1  0  0  0  0
M  END
>  <Catalog ID>
Z1741968196

>  <a_acc>
2

>  <a_don>
1

>  <a_heavy>
7

>  <logP>
-0.77499998

>  <logS>
-0.61036003

>  <TPSA>
51.799999

>  <Weight>
95.104996

$$$$
Z1245635875
  MOE2024           3D

 12 12  0  0  0  0  0  0  0  0999 V2000
    0.9830    3.3640   -0.0580 N   0  0  0  0  0  0  0  0  0  0  0  0
    0.2470    3.7570    0.5400 H   0  0  0  0  0  0  0  0  0  0  0  0
    1.8650    3.8620    0.1130 H   0  0  0  0  0  0  0  0  0  0  0  0
    1.1030    1.9690   -0.0430 C   0  0  0  0  0  0  0  0  0  0  0  0
    2.2270    1.2240    0.0790 C   0  0  0  0  0  0  0  0  0  0  0  0
    3.2490    1.5310    0.1870 H   0  0  0  0  0  0  0  0  0  0  0  0
    1.7720   -0.0850    0.0350 C   0  0  0  0  0  0  0  0  0  0  0  0
    2.5270   -1.1780    0.1240 O   0  0  0  0  0  0  0  0  0  0  0  0
    1.9100   -1.9260    0.0520 H   0  0  0  0  0  0  0  0  0  0  0  0
    0.5000   -0.2120   -0.1050 N   0  0  0  0  0  0  0  0  0  0  0  0
    0.0760    1.0820   -0.1620 N   0  0  0  0  0  0  0  0  0  0  0  0
   -0.9060    1.3380   -0.3100 H   0  0  0  0  0  0  0  0  0  0  0  0
  1  2  1  0  0  0  0
  1  3  1  0  0  0  0
  1  4  1  0  0  0  0
  4  5  2  0  0  0  0
  4 11  1  0  0  0  0
  5  6  1  0  0  0  0
  5  7  1  0  0  0  0
  7  8  1  0  0  0  0
  7 10  2  0  0  0  0
  8  9  1  0  0  0  0
 10 11  1  0  0  0  0
 11 12  1  0  0  0  0
M  END
>  <Catalog ID>
Z1245635875

>  <a_acc>
2

>  <a_don>
4

>  <a_heavy>
7

>  <logP>
0.36899999

>  <logS>
0.19763

>  <TPSA>
74.93

>  <Weight>
99.093002

$$$$
Z33546656
  MOE2024           3D

 16 16  0  0  0  0  0  0  0  0999 V2000
   -0.4410    3.9760   -0.2860 N   0  0  0  0  0  0  0  0  0  0  0  0
   -0.4390    4.9140   -0.6890 H   0  0  0  0  0  0  0  0  0  0  0  0
   -1.3480    3.5860   -0.0320 H   0  0  0  0  0  0  0  0  0  0  0  0
    0.7310    3.3330   -0.1220 C   0  0  0  0  0  0  0  0  0  0  0  0
    1.7560    3.8760   -0.4450 O   0  0  0  0  0  0  0  0  0  0  0  0
    0.7560    1.9370    0.4900 C   0  0  0  0  0  0  0  0  0  0  0  0
    0.7770    1.9510    1.5670 H   0  0  0  0  0  0  0  0  0  0  0  0
    1.8220    0.9720   -0.0980 C   0  0  0  0  0  0  0  0  0  0  0  0
    2.6860    0.8420    0.5290 H   0  0  0  0  0  0  0  0  0  0  0  0
    2.0630    1.1790   -1.1280 H   0  0  0  0  0  0  0  0  0  0  0  0
    0.7660   -0.1540    0.0440 C   0  0  0  0  0  0  0  0  0  0  0  0
    0.7890   -0.6260    1.0120 H   0  0  0  0  0  0  0  0  0  0  0  0
    0.7570   -0.8500   -0.7760 H   0  0  0  0  0  0  0  0  0  0  0  0
   -0.3140    0.9530   -0.0580 C   0  0  0  0  0  0  0  0  0  0  0  0
   -0.5980    1.1560   -1.0770 H   0  0  0  0  0  0  0  0  0  0  0  0
   -1.1510    0.8060    0.6020 H   0  0  0  0  0  0  0  0  0  0  0  0
  1  2  1  0  0  0  0
  1  3  1  0  0  0  0
  1  4  1  0  0  0  0
  4  5  2  0  0  0  0
  4  6  1  0  0  0  0
  6  7  1  0  0  0  0
  6  8  1  0  0  0  0
  6 14  1  0  0  0  0
  8  9  1  0  0  0  0
  8 10  1  0  0  0  0
  8 11  1  0  0  0  0
 11 12  1  0  0  0  0
 11 13  1  0  0  0  0
 11 14  1  0  0  0  0
 14 15  1  0  0  0  0
 14 16  1  0  0  0  0
M  END
>  <Catalog ID>
Z33546656

>  <a_acc>
1

>  <a_don>
1

>  <a_heavy>
7

>  <logP>
-0.02

>  <logS>
-0.69318002

>  <TPSA>
43.09

>  <Weight>
99.132996

$$$$
Z1079179236
  MOE2024           3D

  9  9  0  0  0  0  0  0  0  0999 V2000
    1.0660    4.5840    0.0060 N   0  0  0  0  0  0  0  0  0  0  0  0
    1.0470    3.4410    0.0030 C   0  0  0  0  0  0  0  0  0  0  0  0
    1.0770    2.0050   -0.0010 C   0  0  0  0  0  0  0  0  0  0  0  0
    2.2460    1.2360    0.0040 C   0  0  0  0  0  0  0  0  0  0  0  0
    3.2540    1.6110    0.0130 H   0  0  0  0  0  0  0  0  0  0  0  0
    1.8020   -0.0280   -0.0030 C   0  0  0  0  0  0  0  0  0  0  0  0
    2.3110   -0.9760   -0.0030 H   0  0  0  0  0  0  0  0  0  0  0  0
    0.4990    0.0040   -0.0120 O   0  0  0  0  0  0  0  0  0  0  0  0
    0.0440    1.2220   -0.0110 N   0  0  0  0  0  0  0  0  0  0  0  0
  1  2  3  0  0  0  0
  2  3  1  0  0  0  0
  3  4  1  0  0  0  0
  3  9  2  0  0  0  0
  4  5  1  0  0  0  0
  4  6  2  0  0  0  0
  6  7  1  0  0  0  0
  6  8  1  0  0  0  0
  8  9  1  0  0  0  0
M  END
>  <Catalog ID>
Z1079179236

>  <a_acc>
2

>  <a_don>
0

>  <a_heavy>
7

>  <logP>
-0.14399999

>  <logS>
-0.53508002

>  <TPSA>
49.82

>  <Weight>
94.072998

$$$$
Z1184909877
  MOE2024           3D

 13 13  0  0  0  0  0  0  0  0999 V2000
    1.4130    2.5460    1.2310 O   0  0  0  0  0  0  0  0  0  0  0  0
    0.7630    2.0960    0.0180 S   0  0  0  0  0  0  0  0  0  0  0  0
    0.1870    3.0010   -0.9510 O   0  0  0  0  0  0  0  0  0  0  0  0
    1.7040    0.8010   -0.7560 C   0  0  0  0  0  0  0  0  0  0  0  0
    2.7680    0.8920   -0.6370 H   0  0  0  0  0  0  0  0  0  0  0  0
    1.3870    0.5880   -1.7620 H   0  0  0  0  0  0  0  0  0  0  0  0
    1.0370   -0.1540    0.2910 C   0  0  0  0  0  0  0  0  0  0  0  0
    1.5530   -0.2160    1.2340 H   0  0  0  0  0  0  0  0  0  0  0  0
    0.8080   -1.4110   -0.2370 O   0  0  0  0  0  0  0  0  0  0  0  0
    1.6220   -1.9520   -0.2100 H   0  0  0  0  0  0  0  0  0  0  0  0
   -0.2800    0.6910    0.3340 C   0  0  0  0  0  0  0  0  0  0  0  0
   -0.9410    0.4600   -0.4820 H   0  0  0  0  0  0  0  0  0  0  0  0
   -0.7540    0.6970    1.2990 H   0  0  0  0  0  0  0  0  0  0  0  0
  1  2  2  0  0  0  0
  2  3  2  0  0  0  0
  2  4  1  0  0  0  0
  2 11  1  0  0  0  0
  4  5  1  0  0  0  0
  4  6  1  0  0  0  0
  4  7  1  0  0  0  0
  7  8  1  0  0  0  0
  7  9  1  0  0  0  0
  7 11  1  0  0  0  0
  9 10  1  0  0  0  0
 11 12  1  0  0  0  0
 11 13  1  0  0  0  0
M  END
>  <Catalog ID>
Z1184909877

>  <a_acc>
3

>  <a_don>
1

>  <a_heavy>
7

>  <logP>
-1.475

>  <logS>
0.35199001

>  <TPSA>
54.369999

>  <Weight>
122.144

$$$$
Z104477838
  MOE2024           3D

 18 18  0  0  0  0  0  0  0  0999 V2000
    1.0500    3.4160    0.0250 N   0  3  0  0  0  0  0  0  0  0  0  0
    1.8850    3.9150    0.3490 H   0  0  0  0  0  0  0  0  0  0  0  0
    0.2190    3.9130    0.3590 H   0  0  0  0  0  0  0  0  0  0  0  0
    1.0440    3.4210   -0.9990 H   0  0  0  0  0  0  0  0  0  0  0  0
    1.0550    2.0330    0.5170 C   0  0  0  0  0  0  0  0  0  0  0  0
    1.0550    2.0000    1.5960 H   0  0  0  0  0  0  0  0  0  0  0  0
    2.2610    1.2720   -0.0150 C   0  0  0  0  0  0  0  0  0  0  0  0
    3.1300    1.4130    0.6050 H   0  0  0  0  0  0  0  0  0  0  0  0
    2.4850    1.5680   -1.0260 H   0  0  0  0  0  0  0  0  0  0  0  0
    1.8300   -0.1970   -0.0270 C   0  0  0  0  0  0  0  0  0  0  0  0
    2.1920   -0.6990    0.8560 H   0  0  0  0  0  0  0  0  0  0  0  0
    2.2230   -0.7090   -0.8910 H   0  0  0  0  0  0  0  0  0  0  0  0
    0.2970   -0.2030   -0.0270 C   0  0  0  0  0  0  0  0  0  0  0  0
   -0.0610   -0.7060    0.8570 H   0  0  0  0  0  0  0  0  0  0  0  0
   -0.0930   -0.7180   -0.8900 H   0  0  0  0  0  0  0  0  0  0  0  0
   -0.1450    1.2630   -0.0160 C   0  0  0  0  0  0  0  0  0  0  0  0
   -0.3690    1.5570   -1.0270 H   0  0  0  0  0  0  0  0  0  0  0  0
   -1.0160    1.3980    0.6020 H   0  0  0  0  0  0  0  0  0  0  0  0
  1  2  1  0  0  0  0
  1  3  1  0  0  0  0
  1  4  1  0  0  0  0
  1  5  1  0  0  0  0
  5  6  1  0  0  0  0
  5  7  1  0  0  0  0
  5 16  1  0  0  0  0
  7  8  1  0  0  0  0
  7  9  1  0  0  0  0
  7 10  1  0  0  0  0
 10 11  1  0  0  0  0
 10 12  1  0  0  0  0
 10 13  1  0  0  0  0
 13 14  1  0  0  0  0
 13 15  1  0  0  0  0
 13 16  1  0  0  0  0
 16 17  1  0  0  0  0
 16 18  1  0  0  0  0
M  CHG  1   1   1
M  END
>  <Catalog ID>
Z104477838

>  <a_acc>
0

>  <a_don>
0

>  <a_heavy>
6

>  <logP>
0.91100001

>  <logS>
-0.21343

>  <TPSA>
27.639999

>  <Weight>
86.157997

$$$$
Z1255357278
  MOE2024           3D

 11 11  0  0  0  0  0  0  0  0999 V2000
    1.0070    3.2610    0.0100 O   0  0  0  0  0  0  0  0  0  0  0  0
    1.0460    2.0530    0.0060 C   0  0  0  0  0  0  0  0  0  0  0  0
    2.3000    1.2410    0.0010 C   0  0  0  0  0  0  0  0  0  0  0  0
    2.8830    1.4410    0.8810 H   0  0  0  0  0  0  0  0  0  0  0  0
    2.8790    1.4460   -0.8790 H   0  0  0  0  0  0  0  0  0  0  0  0
    1.7610   -0.2030   -0.0020 C   0  0  0  0  0  0  0  0  0  0  0  0
    2.0650   -0.7410    0.8790 H   0  0  0  0  0  0  0  0  0  0  0  0
    2.0650   -0.7370   -0.8840 H   0  0  0  0  0  0  0  0  0  0  0  0
    0.3400   -0.1250   -0.0010 O   0  0  0  0  0  0  0  0  0  0  0  0
    0.0030    1.2220    0.0040 N   0  0  0  0  0  0  0  0  0  0  0  0
   -0.9840    1.4910    0.0070 H   0  0  0  0  0  0  0  0  0  0  0  0
  1  2  2  0  0  0  0
  2  3  1  0  0  0  0
  2 10  1  0  0  0  0
  3  4  1  0  0  0  0
  3  5  1  0  0  0  0
  3  6  1  0  0  0  0
  6  7  1  0  0  0  0
  6  8  1  0  0  0  0
  6  9  1  0  0  0  0
  9 10  1  0  0  0  0
 10 11  1  0  0  0  0
M  END
>  <Catalog ID>
Z1255357278

>  <a_acc>
2

>  <a_don>
1

>  <a_heavy>
6

>  <logP>
-0.70499998

>  <logS>
-0.04843

>  <TPSA>
38.330002

>  <Weight>
87.077995

$$$$
Z1262255347
  MOE2024           3D

 15 15  0  0  0  0  0  0  0  0999 V2000
   -0.1510    4.1800   -0.0100 N   0  3  0  0  0  0  0  0  0  0  0  0
   -0.0870    5.2030   -0.0160 H   0  0  0  0  0  0  0  0  0  0  0  0
   -0.6760    3.8790    0.8170 H   0  0  0  0  0  0  0  0  0  0  0  0
   -0.6600    3.8680   -0.8440 H   0  0  0  0  0  0  0  0  0  0  0  0
    1.1820    3.5510    0.0070 C   0  0  0  0  0  0  0  0  0  0  0  0
    1.7270    3.8560    0.8860 H   0  0  0  0  0  0  0  0  0  0  0  0
    1.7440    3.8470   -0.8650 H   0  0  0  0  0  0  0  0  0  0  0  0
    1.0220    2.0420    0.0120 C   0  0  0  0  0  0  0  0  0  0  0  0
    2.2020    1.2230    0.0080 C   0  0  0  0  0  0  0  0  0  0  0  0
    3.1940    1.6450    0.0010 H   0  0  0  0  0  0  0  0  0  0  0  0
    1.9510   -0.0980    0.0130 C   0  0  0  0  0  0  0  0  0  0  0  0
    2.6020   -0.9560    0.0110 H   0  0  0  0  0  0  0  0  0  0  0  0
    0.2270   -0.4010    0.0230 S   0  0  0  0  0  0  0  0  0  0  0  0
   -0.1190    1.3180    0.0200 C   0  0  0  0  0  0  0  0  0  0  0  0
   -1.1650    1.5720    0.0260 H   0  0  0  0  0  0  0  0  0  0  0  0
  1  2  1  0  0  0  0
  1  3  1  0  0  0  0
  1  4  1  0  0  0  0
  1  5  1  0  0  0  0
  5  6  1  0  0  0  0
  5  7  1  0  0  0  0
  5  8  1  0  0  0  0
  8  9  1  0  0  0  0
  8 14  2  0  0  0  0
  9 10  1  0  0  0  0
  9 11  2  0  0  0  0
 11 12  1  0  0  0  0
 11 13  1  0  0  0  0
 13 14  1  0  0  0  0
 14 15  1  0  0  0  0
M  CHG  1   1   1
M  END
>  <Catalog ID>
Z1262255347

>  <a_acc>
0

>  <a_don>
0

>  <a_heavy>
7

>  <logP>
0.81199998

>  <logS>
-0.67916

>  <TPSA>
27.639999

>  <Weight>
114.192

$$$$
Z803153778
  MOE2024           3D

 11 11  0  0  0  0  0  0  0  0999 V2000
    1.2770    3.4180    0.0000 O   0  0  0  0  0  0  0  0  0  0  0  0
    1.3530    2.1990    0.0000 C   0  0  0  0  0  0  0  0  0  0  0  0
    2.5770    1.4870   -0.0010 C   0  0  0  0  0  0  0  0  0  0  0  0
    3.4820    2.0640   -0.0020 H   0  0  0  0  0  0  0  0  0  0  0  0
    2.5470    0.1260    0.0000 C   0  0  0  0  0  0  0  0  0  0  0  0
    3.4420   -0.4680   -0.0010 H   0  0  0  0  0  0  0  0  0  0  0  0
    1.2960   -0.5460    0.0020 C   0  0  0  0  0  0  0  0  0  0  0  0
    1.3090   -1.6210    0.0020 H   0  0  0  0  0  0  0  0  0  0  0  0
    0.1530    0.0660    0.0030 N   0  0  0  0  0  0  0  0  0  0  0  0
    0.2060    1.4400    0.0020 N   0  0  0  0  0  0  0  0  0  0  0  0
   -0.6630    1.9820    0.0030 H   0  0  0  0  0  0  0  0  0  0  0  0
  1  2  2  0  0  0  0
  2  3  1  0  0  0  0
  2 10  1  0  0  0  0
  3  4  1  0  0  0  0
  3  5  2  0  0  0  0
  5  6  1  0  0  0  0
  5  7  1  0  0  0  0
  7  8  1  0  0  0  0
  7  9  2  0  0  0  0
  9 10  1  0  0  0  0
 10 11  1  0  0  0  0
M  END
>  <Catalog ID>
Z803153778

>  <a_acc>
2

>  <a_don>
2

>  <a_heavy>
7

>  <logP>
0.40900001

>  <logS>
-0.65701002

>  <TPSA>
41.459999

>  <Weight>
96.088997

$$$$
Z33546369
  MOE2024           3D

 13 12  0  0  0  0  0  0  0  0999 V2000
    2.3570    3.5890    0.0190 C   0  0  0  0  0  0  0  0  0  0  0  0
    1.8190    4.5190    0.0210 H   0  0  0  0  0  0  0  0  0  0  0  0
    2.9720    3.5500   -0.8630 H   0  0  0  0  0  0  0  0  0  0  0  0
    2.9800    3.5510    0.8950 H   0  0  0  0  0  0  0  0  0  0  0  0
    1.3720    2.4250    0.0240 C   0  0  0  0  0  0  0  0  0  0  0  0
    0.7470    2.4420   -0.8530 H   0  0  0  0  0  0  0  0  0  0  0  0
    0.7550    2.4430    0.9070 H   0  0  0  0  0  0  0  0  0  0  0  0
    2.1110    1.2250    0.0220 O   0  0  0  0  0  0  0  0  0  0  0  0
    1.4890    0.0540    0.0240 C   0  0  0  0  0  0  0  0  0  0  0  0
    2.2640   -1.0350    0.0200 N   0  0  0  0  0  0  0  0  0  0  0  0
    1.8410   -1.9600    0.0220 H   0  0  0  0  0  0  0  0  0  0  0  0
    3.2770   -0.9610    0.0160 H   0  0  0  0  0  0  0  0  0  0  0  0
    0.2810   -0.0260    0.0280 O   0  0  0  0  0  0  0  0  0  0  0  0
  1  2  1  0  0  0  0
  1  3  1  0  0  0  0
  1  4  1  0  0  0  0
  1  5  1  0  0  0  0
  5  6  1  0  0  0  0
  5  7  1  0  0  0  0
  5  8  1  0  0  0  0
  8  9  1  0  0  0  0
  9 10  1  0  0  0  0
  9 13  2  0  0  0  0
 10 11  1  0  0  0  0
 10 12  1  0  0  0  0
M  END
>  <Catalog ID>
Z33546369

>  <a_acc>
1

>  <a_don>
1

>  <a_heavy>
6

>  <logP>
-0.186

>  <logS>
-0.27313

>  <TPSA>
52.32

>  <Weight>
89.094002

$$$$
Z104507728
  MOE2024           3D

  9  9  0  0  0  0  0  0  0  0999 V2000
    1.0840    1.9810    0.0010 C   0  0  0  0  0  0  0  0  0  0  0  0
    1.0280    3.0550    0.0020 H   0  0  0  0  0  0  0  0  0  0  0  0
    2.1740    1.1850   -0.0010 C   0  0  0  0  0  0  0  0  0  0  0  0
    3.2160    1.4450   -0.0010 H   0  0  0  0  0  0  0  0  0  0  0  0
    1.7270   -0.0870   -0.0020 N   0  0  0  0  0  0  0  0  0  0  0  0
    2.3060   -0.9360   -0.0030 H   0  0  0  0  0  0  0  0  0  0  0  0
    0.3810   -0.1380   -0.0010 N   0  0  0  0  0  0  0  0  0  0  0  0
    0.0050    1.1040    0.0010 C   0  0  0  0  0  0  0  0  0  0  0  0
   -1.0280    1.4100    0.0020 H   0  0  0  0  0  0  0  0  0  0  0  0
  1  2  1  0  0  0  0
  1  3  2  0  0  0  0
  1  8  1  0  0  0  0
  3  4  1  0  0  0  0
  3  5  1  0  0  0  0
  5  6  1  0  0  0  0
  5  7  1  0  0  0  0
  7  8  2  0  0  0  0
  8  9  1  0  0  0  0
M  END
>  <Catalog ID>
Z104507728

>  <a_acc>
2

>  <a_don>
2

>  <a_heavy>
5

>  <logP>
0.50199997

>  <logS>
0.17907999

>  <TPSA>
28.68

>  <Weight>
68.079002

$$$$
Z104495346
  MOE2024           3D

 13 13  0  0  0  0  0  0  0  0999 V2000
    1.0850    2.0940   -0.0010 C   0  0  0  0  0  0  0  0  0  0  0  0
    1.0590    2.7180   -0.8770 H   0  0  0  0  0  0  0  0  0  0  0  0
    1.0580    2.7210    0.8730 H   0  0  0  0  0  0  0  0  0  0  0  0
    2.3130    1.2030    0.0000 C   0  0  0  0  0  0  0  0  0  0  0  0
    2.9150    1.3720    0.8750 H   0  0  0  0  0  0  0  0  0  0  0  0
    2.9160    1.3710   -0.8750 H   0  0  0  0  0  0  0  0  0  0  0  0
    1.7770   -0.2220    0.0000 C   0  0  0  0  0  0  0  0  0  0  0  0
    2.0820   -0.7570    0.8830 H   0  0  0  0  0  0  0  0  0  0  0  0
    2.0890   -0.7600   -0.8780 H   0  0  0  0  0  0  0  0  0  0  0  0
    0.3880   -0.1570   -0.0060 O   0  0  0  0  0  0  0  0  0  0  0  0
   -0.1030    1.1430   -0.0010 C   0  0  0  0  0  0  0  0  0  0  0  0
   -0.7110    1.2730   -0.8810 H   0  0  0  0  0  0  0  0  0  0  0  0
   -0.7080    1.2680    0.8800 H   0  0  0  0  0  0  0  0  0  0  0  0
  1  2  1  0  0  0  0
  1  3  1  0  0  0  0
  1  4  1  0  0  0  0
  1 11  1  0  0  0  0
  4  5  1  0  0  0  0
  4  6  1  0  0  0  0
  4  7  1  0  0  0  0
  7  8  1  0  0  0  0
  7  9  1  0  0  0  0
  7 10  1  0  0  0  0
 10 11  1  0  0  0  0
 11 12  1  0  0  0  0
 11 13  1  0  0  0  0
M  END
>  <Catalog ID>
Z104495346

>  <a_acc>
1

>  <a_don>
0

>  <a_heavy>
5

>  <logP>
0.74000001

>  <logS>
-0.28556001

>  <TPSA>
9.2299995

>  <Weight>
72.106995

$$$$
Z168817684
  MOE2024           3D

 16 16  0  0  0  0  0  0  0  0999 V2000
    1.2310    3.4470   -0.0030 O   0  0  0  0  0  0  0  0  0  0  0  0
    1.2830    2.2440   -0.0020 C   0  0  0  0  0  0  0  0  0  0  0  0
    2.6360    1.5720    0.0000 C   0  0  0  0  0  0  0  0  0  0  0  0
    3.1660    1.9290    0.8630 H   0  0  0  0  0  0  0  0  0  0  0  0
    3.1680    1.9290   -0.8630 H   0  0  0  0  0  0  0  0  0  0  0  0
    2.6590    0.0310    0.0000 C   0  0  0  0  0  0  0  0  0  0  0  0
    3.2210   -0.2910    0.8600 H   0  0  0  0  0  0  0  0  0  0  0  0
    3.2210   -0.2910   -0.8600 H   0  0  0  0  0  0  0  0  0  0  0  0
    1.3100   -0.7200    0.0000 C   0  0  0  0  0  0  0  0  0  0  0  0
    1.2930   -1.3720    0.8560 H   0  0  0  0  0  0  0  0  0  0  0  0
    1.2940   -1.3730   -0.8550 H   0  0  0  0  0  0  0  0  0  0  0  0
   -0.0120    0.0640   -0.0010 C   0  0  0  0  0  0  0  0  0  0  0  0
   -0.5850   -0.2130    0.8680 H   0  0  0  0  0  0  0  0  0  0  0  0
   -0.5850   -0.2140   -0.8700 H   0  0  0  0  0  0  0  0  0  0  0  0
    0.1470    1.5250   -0.0020 N   0  0  0  0  0  0  0  0  0  0  0  0
   -0.7120    2.0780   -0.0020 H   0  0  0  0  0  0  0  0  0  0  0  0
  1  2  2  0  0  0  0
  2  3  1  0  0  0  0
  2 15  1  0  0  0  0
  3  4  1  0  0  0  0
  3  5  1  0  0  0  0
  3  6  1  0  0  0  0
  6  7  1  0  0  0  0
  6  8  1  0  0  0  0
  6  9  1  0  0  0  0
  9 10  1  0  0  0  0
  9 11  1  0  0  0  0
  9 12  1  0  0  0  0
 12 13  1  0  0  0  0
 12 14  1  0  0  0  0
 12 15  1  0  0  0  0
 15 16  1  0  0  0  0
M  END
>  <Catalog ID>
Z168817684

>  <a_acc>
1

>  <a_don>
1

>  <a_heavy>
7

>  <logP>
0.037

>  <logS>
-0.19741

>  <TPSA>
29.1

>  <Weight>
99.132996

$$$$
Z940713324
  MOE2024           3D

 11 11  0  0  0  0  0  0  0  0999 V2000
    1.3330    2.2100    0.0010 C   0  0  0  0  0  0  0  0  0  0  0  0
    1.3330    3.2860    0.0000 H   0  0  0  0  0  0  0  0  0  0  0  0
    2.5070    1.4870    0.0010 C   0  0  0  0  0  0  0  0  0  0  0  0
    3.4580    1.9880    0.0010 H   0  0  0  0  0  0  0  0  0  0  0  0
    2.4520    0.1020    0.0020 C   0  0  0  0  0  0  0  0  0  0  0  0
    3.3760   -0.4500    0.0020 H   0  0  0  0  0  0  0  0  0  0  0  0
    1.3340   -0.6070    0.0020 N   0  0  0  0  0  0  0  0  0  0  0  0
    0.2160    0.1020    0.0020 C   0  0  0  0  0  0  0  0  0  0  0  0
   -0.7080   -0.4520    0.0020 H   0  0  0  0  0  0  0  0  0  0  0  0
    0.1600    1.4860    0.0010 C   0  0  0  0  0  0  0  0  0  0  0  0
   -0.7920    1.9860    0.0010 H   0  0  0  0  0  0  0  0  0  0  0  0
  1  2  1  0  0  0  0
  1  3  1  0  0  0  0
  1 10  2  0  0  0  0
  3  4  1  0  0  0  0
  3  5  2  0  0  0  0
  5  6  1  0  0  0  0
  5  7  1  0  0  0  0
  7  8  2  0  0  0  0
  8  9  1  0  0  0  0
  8 10  1  0  0  0  0
 10 11  1  0  0  0  0
M  END
>  <Catalog ID>
Z940713324

>  <a_acc>
1

>  <a_don>
0

>  <a_heavy>
6

>  <logP>
0.67400002

>  <logS>
-0.12673999

>  <TPSA>
12.89

>  <Weight>
79.101997

$$$$
Z104495272
  MOE2024           3D

 13 13  0  0  0  0  0  0  0  0999 V2000
    1.3330    3.5560    0.0030 N   0  0  0  0  0  0  0  0  0  0  0  0
    0.4800    4.1300    0.0030 H   0  0  0  0  0  0  0  0  0  0  0  0
    2.1850    4.1290    0.0060 H   0  0  0  0  0  0  0  0  0  0  0  0
    1.3320    2.2090    0.0010 C   0  0  0  0  0  0  0  0  0  0  0  0
    2.5270    1.4830    0.0020 C   0  0  0  0  0  0  0  0  0  0  0  0
    3.4580    2.0220    0.0050 H   0  0  0  0  0  0  0  0  0  0  0  0
    2.5110    0.1120    0.0000 C   0  0  0  0  0  0  0  0  0  0  0  0
    3.4300   -0.4520    0.0000 H   0  0  0  0  0  0  0  0  0  0  0  0
    1.3300   -0.5590   -0.0040 N   0  0  0  0  0  0  0  0  0  0  0  0
    0.1500    0.1140   -0.0050 C   0  0  0  0  0  0  0  0  0  0  0  0
   -0.7700   -0.4490   -0.0080 H   0  0  0  0  0  0  0  0  0  0  0  0
    0.1360    1.4850   -0.0030 C   0  0  0  0  0  0  0  0  0  0  0  0
   -0.7940    2.0250   -0.0040 H   0  0  0  0  0  0  0  0  0  0  0  0
  1  2  1  0  0  0  0
  1  3  1  0  0  0  0
  1  4  1  0  0  0  0
  4  5  1  0  0  0  0
  4 12  2  0  0  0  0
  5  6  1  0  0  0  0
  5  7  2  0  0  0  0
  7  8  1  0  0  0  0
  7  9  1  0  0  0  0
  9 10  2  0  0  0  0
 10 11  1  0  0  0  0
 10 12  1  0  0  0  0
 12 13  1  0  0  0  0
M  END
>  <Catalog ID>
Z104495272

>  <a_acc>
1

>  <a_don>
1

>  <a_heavy>
7

>  <logP>
0.0020000001

>  <logS>
0.15238

>  <TPSA>
38.91

>  <Weight>
94.116997

$$$$
Z104472692
  MOE2024           3D

  9  9  0  0  0  0  0  0  0  0999 V2000
    1.0440    1.9540   -0.0020 C   0  0  0  0  0  0  0  0  0  0  0  0
    1.0000    3.0280   -0.0020 H   0  0  0  0  0  0  0  0  0  0  0  0
    2.1150    1.1300   -0.0010 C   0  0  0  0  0  0  0  0  0  0  0  0
    3.1580    1.4020   -0.0010 H   0  0  0  0  0  0  0  0  0  0  0  0
    1.7310   -0.1610    0.0000 N   0  0  0  0  0  0  0  0  0  0  0  0
    0.4390   -0.0980   -0.0010 C   0  0  0  0  0  0  0  0  0  0  0  0
   -0.2060   -0.9590    0.0000 H   0  0  0  0  0  0  0  0  0  0  0  0
   -0.0440    1.1620   -0.0010 N   0  0  0  0  0  0  0  0  0  0  0  0
   -1.0280    1.4460   -0.0020 H   0  0  0  0  0  0  0  0  0  0  0  0
  1  2  1  0  0  0  0
  1  3  2  0  0  0  0
  1  8  1  0  0  0  0
  3  4  1  0  0  0  0
  3  5  1  0  0  0  0
  5  6  2  0  0  0  0
  6  7  1  0  0  0  0
  6  8  1  0  0  0  0
  8  9  1  0  0  0  0
M  END
>  <Catalog ID>
Z104472692

>  <a_acc>
2

>  <a_don>
2

>  <a_heavy>
5

>  <logP>
-0.35800001

>  <logS>
0.0109

>  <TPSA>
28.68

>  <Weight>
68.079002

$$$$
Z237528494
  MOE2024           3D

  8  8  0  0  0  0  0  0  0  0999 V2000
    1.1020    1.9540    0.0050 C   0  0  0  0  0  0  0  0  0  0  0  0
    1.0360    3.0260    0.0100 H   0  0  0  0  0  0  0  0  0  0  0  0
    2.1640    1.1340   -0.0050 C   0  0  0  0  0  0  0  0  0  0  0  0
    3.2100    1.3870   -0.0090 H   0  0  0  0  0  0  0  0  0  0  0  0
    1.7510   -0.1380   -0.0080 N   0  0  0  0  0  0  0  0  0  0  0  0
    0.4630   -0.1350   -0.0010 N   0  0  0  0  0  0  0  0  0  0  0  0
    0.0490    1.1350    0.0070 N   0  0  0  0  0  0  0  0  0  0  0  0
   -0.9440    1.3920    0.0130 H   0  0  0  0  0  0  0  0  0  0  0  0
  1  2  1  0  0  0  0
  1  3  2  0  0  0  0
  1  7  1  0  0  0  0
  3  4  1  0  0  0  0
  3  5  1  0  0  0  0
  5  6  2  0  0  0  0
  6  7  1  0  0  0  0
  7  8  1  0  0  0  0
M  END
>  <Catalog ID>
Z237528494

>  <a_acc>
3

>  <a_don>
2

>  <a_heavy>
5

>  <logP>
-0.154

>  <logS>
0.65881997

>  <TPSA>
41.57

>  <Weight>
69.067001

$$$$
Z237573792
  MOE2024           3D

 15 15  0  0  0  0  0  0  0  0999 V2000
   -0.7800    3.8100   -0.1260 N   0  3  0  0  0  0  0  0  0  0  0  0
   -0.7820    4.6820   -0.6650 H   0  0  0  0  0  0  0  0  0  0  0  0
   -1.0180    4.0170    0.8500 H   0  0  0  0  0  0  0  0  0  0  0  0
   -1.5040    3.1850   -0.4960 H   0  0  0  0  0  0  0  0  0  0  0  0
    0.5240    3.1280   -0.1950 C   0  0  0  0  0  0  0  0  0  0  0  0
    1.2990    3.7270    0.2560 H   0  0  0  0  0  0  0  0  0  0  0  0
    0.7870    2.9360   -1.2240 H   0  0  0  0  0  0  0  0  0  0  0  0
    0.3740    1.8070    0.5480 C   0  0  0  0  0  0  0  0  0  0  0  0
    0.3130    1.9430    1.6160 H   0  0  0  0  0  0  0  0  0  0  0  0
    1.1380    0.5990    0.1060 C   0  0  0  0  0  0  0  0  0  0  0  0
    1.5490   -0.0650    0.8500 H   0  0  0  0  0  0  0  0  0  0  0  0
    1.7450    0.6310   -0.7840 H   0  0  0  0  0  0  0  0  0  0  0  0
   -0.3550    0.6440   -0.0540 C   0  0  0  0  0  0  0  0  0  0  0  0
   -0.7360    0.6770   -1.0610 H   0  0  0  0  0  0  0  0  0  0  0  0
   -0.9440    0.0010    0.5810 H   0  0  0  0  0  0  0  0  0  0  0  0
  1  2  1  0  0  0  0
  1  3  1  0  0  0  0
  1  4  1  0  0  0  0
  1  5  1  0  0  0  0
  5  6  1  0  0  0  0
  5  7  1  0  0  0  0
  5  8  1  0  0  0  0
  8  9  1  0  0  0  0
  8 10  1  0  0  0  0
  8 13  1  0  0  0  0
 10 11  1  0  0  0  0
 10 12  1  0  0  0  0
 10 13  1  0  0  0  0
 13 14  1  0  0  0  0
 13 15  1  0  0  0  0
M  CHG  1   1   1
M  END
>  <Catalog ID>
Z237573792

>  <a_acc>
0

>  <a_don>
0

>  <a_heavy>
5

>  <logP>
0.193

>  <logS>
0.11378

>  <TPSA>
27.639999

>  <Weight>
72.130997

$$$$
Z1741969146
  MOE2024           3D

 14 13  0  0  0  0  0  0  0  0999 V2000
    5.8840    2.0460    0.0040 C   0  0  0  0  0  0  0  0  0  0  0  0
    6.5580    2.8870   -0.0020 H   0  0  0  0  0  0  0  0  0  0  0  0
    5.2900    2.1070    0.9000 H   0  0  0  0  0  0  0  0  0  0  0  0
    5.2450    2.1310   -0.8580 H   0  0  0  0  0  0  0  0  0  0  0  0
    6.6940    0.7350   -0.0340 C   0  0  0  0  0  0  0  0  0  0  0  0
    7.3550    0.7220    0.8150 H   0  0  0  0  0  0  0  0  0  0  0  0
    7.3050    0.7390   -0.9190 H   0  0  0  0  0  0  0  0  0  0  0  0
    5.8710   -0.5510   -0.0240 C   0  0  0  0  0  0  0  0  0  0  0  0
    6.5020   -1.6950   -0.0210 N   0  0  0  0  0  0  0  0  0  0  0  0
    6.0450   -2.6090   -0.0150 H   0  0  0  0  0  0  0  0  0  0  0  0
    7.5240   -1.7730   -0.0260 H   0  0  0  0  0  0  0  0  0  0  0  0
    4.5650   -0.5010   -0.0180 N   0  3  0  0  0  0  0  0  0  0  0  0
    3.9440   -1.3130   -0.0120 H   0  0  0  0  0  0  0  0  0  0  0  0
    4.0520    0.3860   -0.0190 H   0  0  0  0  0  0  0  0  0  0  0  0
  1  2  1  0  0  0  0
  1  3  1  0  0  0  0
  1  4  1  0  0  0  0
  1  5  1  0  0  0  0
  5  6  1  0  0  0  0
  5  7  1  0  0  0  0
  5  8  1  0  0  0  0
  8  9  1  0  0  0  0
  8 12  2  0  0  0  0
  9 10  1  0  0  0  0
  9 11  1  0  0  0  0
 12 13  1  0  0  0  0
 12 14  1  0  0  0  0
M  CHG  1  12   1
M  END
>  <Catalog ID>
Z1741969146

>  <a_acc>
0

>  <a_don>
0

>  <a_heavy>
5

>  <logP>
-0.107

>  <logS>
-0.25459999

>  <TPSA>
51.610001

>  <Weight>
73.118996

$$$$
Z104494954
  MOE2024           3D

 12 12  0  0  0  0  0  0  0  0999 V2000
    1.0620    3.1720    0.1980 O   0  0  0  0  0  0  0  0  0  0  0  0
    1.0620    1.9780    0.0070 C   0  0  0  0  0  0  0  0  0  0  0  0
    2.1640    1.2210   -0.0590 N   0  0  0  0  0  0  0  0  0  0  0  0
    3.0530    1.6030    0.2590 H   0  0  0  0  0  0  0  0  0  0  0  0
    1.8310   -0.2180   -0.0080 C   0  0  0  0  0  0  0  0  0  0  0  0
    2.2180   -0.6660    0.8910 H   0  0  0  0  0  0  0  0  0  0  0  0
    2.2200   -0.7260   -0.8730 H   0  0  0  0  0  0  0  0  0  0  0  0
    0.2900   -0.2170   -0.0080 C   0  0  0  0  0  0  0  0  0  0  0  0
   -0.0970   -0.6660    0.8900 H   0  0  0  0  0  0  0  0  0  0  0  0
   -0.0990   -0.7240   -0.8740 H   0  0  0  0  0  0  0  0  0  0  0  0
   -0.0410    1.2220   -0.0570 N   0  0  0  0  0  0  0  0  0  0  0  0
   -0.9300    1.6050    0.2630 H   0  0  0  0  0  0  0  0  0  0  0  0
  1  2  2  0  0  0  0
  2  3  1  0  0  0  0
  2 11  1  0  0  0  0
  3  4  1  0  0  0  0
  3  5  1  0  0  0  0
  5  6  1  0  0  0  0
  5  7  1  0  0  0  0
  5  8  1  0  0  0  0
  8  9  1  0  0  0  0
  8 10  1  0  0  0  0
  8 11  1  0  0  0  0
 11 12  1  0  0  0  0
M  END
>  <Catalog ID>
Z104494954

>  <a_acc>
1

>  <a_don>
2

>  <a_heavy>
6

>  <logP>
-1.165

>  <logS>
0.24683

>  <TPSA>
41.130001

>  <Weight>
86.094002

$$$$
Z104472812
  MOE2024           3D

 11 11  0  0  0  0  0  0  0  0999 V2000
    1.2940    3.9980    0.0070 Br  0  0  0  0  0  0  0  0  0  0  0  0
    1.3590    2.0750    0.0020 C   0  0  0  0  0  0  0  0  0  0  0  0
    2.5830    1.4450    0.0040 C   0  0  0  0  0  0  0  0  0  0  0  0
    3.5050    1.9980    0.0080 H   0  0  0  0  0  0  0  0  0  0  0  0
    2.5400    0.0650    0.0000 C   0  0  0  0  0  0  0  0  0  0  0  0
    3.4490   -0.5090    0.0020 H   0  0  0  0  0  0  0  0  0  0  0  0
    1.3110   -0.5820   -0.0050 C   0  0  0  0  0  0  0  0  0  0  0  0
    1.2980   -1.6590   -0.0080 H   0  0  0  0  0  0  0  0  0  0  0  0
    0.1300    0.0260   -0.0080 N   0  0  0  0  0  0  0  0  0  0  0  0
    0.1780    1.3520   -0.0040 C   0  0  0  0  0  0  0  0  0  0  0  0
   -0.7560    1.8850   -0.0060 H   0  0  0  0  0  0  0  0  0  0  0  0
  1  2  1  0  0  0  0
  2  3  1  0  0  0  0
  2 10  2  0  0  0  0
  3  4  1  0  0  0  0
  3  5  2  0  0  0  0
  5  6  1  0  0  0  0
  5  7  1  0  0  0  0
  7  8  1  0  0  0  0
  7  9  2  0  0  0  0
  9 10  1  0  0  0  0
 10 11  1  0  0  0  0
M  END
>  <Catalog ID>
Z104472812

>  <a_acc>
1

>  <a_don>
0

>  <a_heavy>
7

>  <logP>
1.471

>  <logS>
-1.2171299

>  <TPSA>
12.89

>  <Weight>
157.998

$$$$
Z57127349
  MOE2024           3D

 12 12  0  0  0  0  0  0  0  0999 V2000
    0.9020    3.1740   -0.0030 O   0  0  0  0  0  0  0  0  0  0  0  0
    0.9790    1.9760    0.0020 C   0  0  0  0  0  0  0  0  0  0  0  0
    2.2750    1.1960    0.0010 C   0  0  0  0  0  0  0  0  0  0  0  0
    2.8450    1.4320    0.8820 H   0  0  0  0  0  0  0  0  0  0  0  0
    2.8430    1.4310   -0.8810 H   0  0  0  0  0  0  0  0  0  0  0  0
    1.8050   -0.2760    0.0030 C   0  0  0  0  0  0  0  0  0  0  0  0
    2.1370   -0.7980    0.8820 H   0  0  0  0  0  0  0  0  0  0  0  0
    2.1250   -0.7960   -0.8810 H   0  0  0  0  0  0  0  0  0  0  0  0
    0.2960   -0.1590    0.0120 C   0  0  0  0  0  0  0  0  0  0  0  0
   -0.4610   -1.0900    0.0200 O   0  0  0  0  0  0  0  0  0  0  0  0
   -0.0690    1.1350    0.0100 N   0  0  0  0  0  0  0  0  0  0  0  0
   -1.0360    1.4440    0.0140 H   0  0  0  0  0  0  0  0  0  0  0  0
  1  2  2  0  0  0  0
  2  3  1  0  0  0  0
  2 11  1  0  0  0  0
  3  4  1  0  0  0  0
  3  5  1  0  0  0  0
  3  6  1  0  0  0  0
  6  7  1  0  0  0  0
  6  8  1  0  0  0  0
  6  9  1  0  0  0  0
  9 10  2  0  0  0  0
  9 11  1  0  0  0  0
 11 12  1  0  0  0  0
M  END
>  <Catalog ID>
Z57127349

>  <a_acc>
2

>  <a_don>
1

>  <a_heavy>
7

>  <logP>
-0.90799999

>  <logS>
-0.063100003

>  <TPSA>
46.169998

>  <Weight>
99.088997

$$$$
Z190661742
  MOE2024           3D

 12 12  0  0  0  0  0  0  0  0999 V2000
    6.0320    2.4420    0.0430 N   0  0  0  0  0  0  0  0  0  0  0  0
    5.0640    2.6290    0.3170 H   0  0  0  0  0  0  0  0  0  0  0  0
    6.6620    2.8780    0.7170 H   0  0  0  0  0  0  0  0  0  0  0  0
    6.1990    1.0820   -0.0080 C   0  0  0  0  0  0  0  0  0  0  0  0
    7.3310    0.4020   -0.2560 C   0  0  0  0  0  0  0  0  0  0  0  0
    8.3360    0.7050   -0.4770 H   0  0  0  0  0  0  0  0  0  0  0  0
    6.9630   -1.3050   -0.1850 S   0  0  0  0  0  0  0  0  0  0  0  0
    5.2940   -0.8880    0.1800 C   0  0  0  0  0  0  0  0  0  0  0  0
    4.4000   -1.8890    0.3660 N   0  0  0  0  0  0  0  0  0  0  0  0
    3.4130   -1.6550    0.4770 H   0  0  0  0  0  0  0  0  0  0  0  0
    4.6340   -2.8640    0.1780 H   0  0  0  0  0  0  0  0  0  0  0  0
    5.0570    0.3660    0.2400 N   0  0  0  0  0  0  0  0  0  0  0  0
  1  2  1  0  0  0  0
  1  3  1  0  0  0  0
  1  4  1  0  0  0  0
  4  5  2  0  0  0  0
  4 12  1  0  0  0  0
  5  6  1  0  0  0  0
  5  7  1  0  0  0  0
  7  8  1  0  0  0  0
  8  9  1  0  0  0  0
  8 12  2  0  0  0  0
  9 10  1  0  0  0  0
  9 11  1  0  0  0  0
M  END
>  <Catalog ID>
Z190661742

>  <a_acc>
1

>  <a_don>
2

>  <a_heavy>
7

>  <logP>
-0.052999999

>  <logS>
-0.60926998

>  <TPSA>
64.93

>  <Weight>
115.16

$$$$
Z1198152541
  MOE2024           3D

 11 11  0  0  0  0  0  0  0  0999 V2000
    1.3650    3.4480    0.0140 O   0  0  0  0  0  0  0  0  0  0  0  0
    1.3670    2.2150    0.0060 C   0  0  0  0  0  0  0  0  0  0  0  0
    2.5860    1.4950    0.0040 C   0  0  0  0  0  0  0  0  0  0  0  0
    3.4990    2.0590    0.0090 H   0  0  0  0  0  0  0  0  0  0  0  0
    2.5450    0.1410   -0.0040 C   0  0  0  0  0  0  0  0  0  0  0  0
    3.4360   -0.4670   -0.0060 H   0  0  0  0  0  0  0  0  0  0  0  0
    1.3270   -0.5050   -0.0100 N   0  0  0  0  0  0  0  0  0  0  0  0
    1.3070   -1.5380   -0.0160 H   0  0  0  0  0  0  0  0  0  0  0  0
    0.1260    0.1390   -0.0080 N   0  0  0  0  0  0  0  0  0  0  0  0
    0.1710    1.4380    0.0000 C   0  0  0  0  0  0  0  0  0  0  0  0
   -0.7530    1.9860    0.0020 H   0  0  0  0  0  0  0  0  0  0  0  0
  1  2  2  0  0  0  0
  2  3  1  0  0  0  0
  2 10  1  0  0  0  0
  3  4  1  0  0  0  0
  3  5  2  0  0  0  0
  5  6  1  0  0  0  0
  5  7  1  0  0  0  0
  7  8  1  0  0  0  0
  7  9  1  0  0  0  0
  9 10  2  0  0  0  0
 10 11  1  0  0  0  0
M  END
>  <Catalog ID>
Z1198152541

>  <a_acc>
2

>  <a_don>
1

>  <a_heavy>
7

>  <logP>
1.788

>  <logS>
-0.16790999

>  <TPSA>
41.459999

>  <Weight>
96.088997

$$$$
Z275169750
  MOE2024           3D

  9  9  0  0  0  0  0  0  0  0999 V2000
    1.0230    3.8170    0.0040 Br  0  0  0  0  0  0  0  0  0  0  0  0
    1.0760    1.8800    0.0010 C   0  0  0  0  0  0  0  0  0  0  0  0
    2.1680    1.0970   -0.0010 C   0  0  0  0  0  0  0  0  0  0  0  0
    3.2110    1.3530   -0.0020 H   0  0  0  0  0  0  0  0  0  0  0  0
    1.6890   -0.1670   -0.0020 N   0  0  0  0  0  0  0  0  0  0  0  0
    2.2530   -1.0270   -0.0030 H   0  0  0  0  0  0  0  0  0  0  0  0
    0.3320   -0.1990    0.0000 N   0  0  0  0  0  0  0  0  0  0  0  0
   -0.0340    1.0510    0.0020 C   0  0  0  0  0  0  0  0  0  0  0  0
   -1.0570    1.3860    0.0030 H   0  0  0  0  0  0  0  0  0  0  0  0
  1  2  1  0  0  0  0
  2  3  2  0  0  0  0
  2  8  1  0  0  0  0
  3  4  1  0  0  0  0
  3  5  1  0  0  0  0
  5  6  1  0  0  0  0
  5  7  1  0  0  0  0
  7  8  2  0  0  0  0
  8  9  1  0  0  0  0
M  END
>  <Catalog ID>
Z275169750

>  <a_acc>
2

>  <a_don>
2

>  <a_heavy>
6

>  <logP>
1.298

>  <logS>
-0.91131002

>  <TPSA>
28.68

>  <Weight>
146.97499

$$$$
Z2935001239
  MOE2024           3D

 12 12  0  0  0  0  0  0  0  0999 V2000
    4.6900    1.9730   -0.0600 O   0  0  0  0  0  0  0  0  0  0  0  0
    4.7120    0.7620   -0.0180 C   0  0  0  0  0  0  0  0  0  0  0  0
    5.9570   -0.0570    0.0930 C   0  0  0  0  0  0  0  0  0  0  0  0
    6.3690    0.0400    1.0790 H   0  0  0  0  0  0  0  0  0  0  0  0
    6.6820    0.2420   -0.6400 H   0  0  0  0  0  0  0  0  0  0  0  0
    5.4520   -1.4910   -0.1620 C   0  0  0  0  0  0  0  0  0  0  0  0
    5.8750   -2.1800    0.5500 H   0  0  0  0  0  0  0  0  0  0  0  0
    5.7270   -1.8050   -1.1550 H   0  0  0  0  0  0  0  0  0  0  0  0
    3.9570   -1.4900   -0.0630 N   0  0  0  0  0  0  0  0  0  0  0  0
    3.7560   -1.8020    0.9010 H   0  0  0  0  0  0  0  0  0  0  0  0
    3.6580   -0.0540   -0.0870 N   0  0  0  0  0  0  0  0  0  0  0  0
    2.7180    0.2970   -0.3100 H   0  0  0  0  0  0  0  0  0  0  0  0
  1  2  2  0  0  0  0
  2  3  1  0  0  0  0
  2 11  1  0  0  0  0
  3  4  1  0  0  0  0
  3  5  1  0  0  0  0
  3  6  1  0  0  0  0
  6  7  1  0  0  0  0
  6  8  1  0  0  0  0
  6  9  1  0  0  0  0
  9 10  1  0  0  0  0
  9 11  1  0  0  0  0
 11 12  1  0  0  0  0
M  END
>  <Catalog ID>
Z2935001239

>  <a_acc>
2

>  <a_don>
2

>  <a_heavy>
6

>  <logP>
-0.94999999

>  <logS>
0.50884002

>  <TPSA>
41.130001

>  <Weight>
86.094002

$$$$
Z104473498
  MOE2024           3D

 19 19  0  0  0  0  0  0  0  0999 V2000
    1.3600    3.5110    0.0400 O   0  0  0  0  0  0  0  0  0  0  0  0
    1.3640    3.5560   -0.9340 H   0  0  0  0  0  0  0  0  0  0  0  0
    1.3560    2.1950    0.4420 C   0  0  0  0  0  0  0  0  0  0  0  0
    1.3520    2.1800    1.5190 H   0  0  0  0  0  0  0  0  0  0  0  0
    2.6270    1.5250   -0.0890 C   0  0  0  0  0  0  0  0  0  0  0  0
    3.4880    1.9820    0.3670 H   0  0  0  0  0  0  0  0  0  0  0  0
    2.6890    1.6560   -1.1550 H   0  0  0  0  0  0  0  0  0  0  0  0
    2.6240    0.0210    0.2260 C   0  0  0  0  0  0  0  0  0  0  0  0
    2.6750   -0.1190    1.2920 H   0  0  0  0  0  0  0  0  0  0  0  0
    3.4940   -0.4400   -0.2090 H   0  0  0  0  0  0  0  0  0  0  0  0
    1.3560   -0.6580   -0.3140 C   0  0  0  0  0  0  0  0  0  0  0  0
    1.3540   -1.6950   -0.0270 H   0  0  0  0  0  0  0  0  0  0  0  0
    1.3610   -0.6160   -1.3900 H   0  0  0  0  0  0  0  0  0  0  0  0
    0.0850    0.0240    0.2140 C   0  0  0  0  0  0  0  0  0  0  0  0
    0.0230   -0.1170    1.2800 H   0  0  0  0  0  0  0  0  0  0  0  0
   -0.7820   -0.4350   -0.2300 H   0  0  0  0  0  0  0  0  0  0  0  0
    0.0880    1.5280   -0.1000 C   0  0  0  0  0  0  0  0  0  0  0  0
    0.0350    1.6600   -1.1660 H   0  0  0  0  0  0  0  0  0  0  0  0
   -0.7750    1.9870    0.3480 H   0  0  0  0  0  0  0  0  0  0  0  0
  1  2  1  0  0  0  0
  1  3  1  0  0  0  0
  3  4  1  0  0  0  0
  3  5  1  0  0  0  0
  3 17  1  0  0  0  0
  5  6  1  0  0  0  0
  5  7  1  0  0  0  0
  5  8  1  0  0  0  0
  8  9  1  0  0  0  0
  8 10  1  0  0  0  0
  8 11  1  0  0  0  0
 11 12  1  0  0  0  0
 11 13  1  0  0  0  0
 11 14  1  0  0  0  0
 14 15  1  0  0  0  0
 14 16  1  0  0  0  0
 14 17  1  0  0  0  0
 17 18  1  0  0  0  0
 17 19  1  0  0  0  0
M  END
>  <Catalog ID>
Z104473498

>  <a_acc>
1

>  <a_don>
1

>  <a_heavy>
7

>  <logP>
1.575

>  <logS>
-0.85913998

>  <TPSA>
20.23

>  <Weight>
100.161

$$$$
Z56887677
  MOE2024           3D

 17 16  0  0  0  0  0  0  0  0999 V2000
    2.4700    3.4370   -0.0250 C   0  0  0  0  0  0  0  0  0  0  0  0
    2.1780    4.3710   -0.4700 H   0  0  0  0  0  0  0  0  0  0  0  0
    3.3410    3.0760   -0.5440 H   0  0  0  0  0  0  0  0  0  0  0  0
    2.7140    3.6100    1.0070 H   0  0  0  0  0  0  0  0  0  0  0  0
    1.3370    2.4260   -0.1560 C   0  0  0  0  0  0  0  0  0  0  0  0
    1.1080    2.2720   -1.2000 H   0  0  0  0  0  0  0  0  0  0  0  0
    0.0840    2.8960    0.5750 C   0  0  0  0  0  0  0  0  0  0  0  0
    0.2880    3.0590    1.6180 H   0  0  0  0  0  0  0  0  0  0  0  0
   -0.6940    2.1600    0.4740 H   0  0  0  0  0  0  0  0  0  0  0  0
   -0.2650    3.8160    0.1450 H   0  0  0  0  0  0  0  0  0  0  0  0
    1.7740    1.1650    0.4490 N   0  0  0  0  0  0  0  0  0  0  0  0
    2.0660    1.2210    1.4190 H   0  0  0  0  0  0  0  0  0  0  0  0
    1.9730    0.0140   -0.2210 C   0  0  0  0  0  0  0  0  0  0  0  0
    2.3880   -1.0520    0.4640 N   0  0  0  0  0  0  0  0  0  0  0  0
    2.4480   -1.9340   -0.0420 H   0  0  0  0  0  0  0  0  0  0  0  0
    2.3290   -1.1030    1.4760 H   0  0  0  0  0  0  0  0  0  0  0  0
    1.7850   -0.0910   -1.4130 O   0  0  0  0  0  0  0  0  0  0  0  0
  1  2  1  0  0  0  0
  1  3  1  0  0  0  0
  1  4  1  0  0  0  0
  1  5  1  0  0  0  0
  5  6  1  0  0  0  0
  5  7  1  0  0  0  0
  5 11  1  0  0  0  0
  7  8  1  0  0  0  0
  7  9  1  0  0  0  0
  7 10  1  0  0  0  0
 11 12  1  0  0  0  0
 11 13  1  0  0  0  0
 13 14  1  0  0  0  0
 13 17  2  0  0  0  0
 14 15  1  0  0  0  0
 14 16  1  0  0  0  0
M  END
>  <Catalog ID>
Z56887677

>  <a_acc>
1

>  <a_don>
2

>  <a_heavy>
7

>  <logP>
-0.366

>  <logS>
-0.36474001

>  <TPSA>
55.119999

>  <Weight>
102.137

$$$$
Z1954800348
  MOE2024           3D

 17 17  0  0  0  0  0  0  0  0999 V2000
    5.7350    2.2630   -0.5640 N   0  0  0  0  0  0  0  0  0  0  0  0
    4.8830    2.8030   -0.6830 H   0  0  0  0  0  0  0  0  0  0  0  0
    6.5940    2.7860   -0.6990 H   0  0  0  0  0  0  0  0  0  0  0  0
    5.7240    0.9970   -0.2820 C   0  0  0  0  0  0  0  0  0  0  0  0
    6.8590    0.3550   -0.1490 N   0  0  0  0  0  0  0  0  0  0  0  0
    7.7350    0.8610   -0.2400 H   0  0  0  0  0  0  0  0  0  0  0  0
    6.9750   -1.0870    0.1780 C   0  0  0  0  0  0  0  0  0  0  0  0
    7.1240   -1.2010    1.2400 H   0  0  0  0  0  0  0  0  0  0  0  0
    7.8230   -1.5150   -0.3340 H   0  0  0  0  0  0  0  0  0  0  0  0
    5.6950   -1.8080   -0.2540 C   0  0  0  0  0  0  0  0  0  0  0  0
    5.6880   -2.8050    0.1490 H   0  0  0  0  0  0  0  0  0  0  0  0
    5.6840   -1.9010   -1.3260 H   0  0  0  0  0  0  0  0  0  0  0  0
    4.4380   -1.0600    0.2010 C   0  0  0  0  0  0  0  0  0  0  0  0
    4.3060   -1.1720    1.2650 H   0  0  0  0  0  0  0  0  0  0  0  0
    3.5720   -1.4690   -0.2960 H   0  0  0  0  0  0  0  0  0  0  0  0
    4.5800    0.3790   -0.1270 N   0  3  0  0  0  0  0  0  0  0  0  0
    3.7130    0.9050   -0.2000 H   0  0  0  0  0  0  0  0  0  0  0  0
  1  2  1  0  0  0  0
  1  3  1  0  0  0  0
  1  4  1  0  0  0  0
  4  5  1  0  0  0  0
  4 16  2  0  0  0  0
  5  6  1  0  0  0  0
  5  7  1  0  0  0  0
  7  8  1  0  0  0  0
  7  9  1  0  0  0  0
  7 10  1  0  0  0  0
 10 11  1  0  0  0  0
 10 12  1  0  0  0  0
 10 13  1  0  0  0  0
 13 14  1  0  0  0  0
 13 15  1  0  0  0  0
 13 16  1  0  0  0  0
 16 17  1  0  0  0  0
M  CHG  1  16   1
M  END
>  <Catalog ID>
Z1954800348

>  <a_acc>
0

>  <a_don>
0

>  <a_heavy>
7

>  <logP>
0.152

>  <logS>
-0.13131

>  <TPSA>
52.02

>  <Weight>
100.145

$$$$
Z1198152494
  MOE2024           3D

 10 10  0  0  0  0  0  0  0  0999 V2000
    0.9730    4.5690   -0.0070 N   0  0  0  0  0  0  0  0  0  0  0  0
    0.9820    3.4270   -0.0050 C   0  0  0  0  0  0  0  0  0  0  0  0
    1.0490    1.9870   -0.0020 C   0  0  0  0  0  0  0  0  0  0  0  0
    2.1630    1.2070    0.0010 C   0  0  0  0  0  0  0  0  0  0  0  0
    3.1970    1.5040    0.0020 H   0  0  0  0  0  0  0  0  0  0  0  0
    1.7590   -0.0730    0.0030 N   0  0  0  0  0  0  0  0  0  0  0  0
    2.3380   -0.9200    0.0050 H   0  0  0  0  0  0  0  0  0  0  0  0
    0.4120   -0.0140    0.0000 C   0  0  0  0  0  0  0  0  0  0  0  0
   -0.2000   -0.9000    0.0010 H   0  0  0  0  0  0  0  0  0  0  0  0
   -0.0530    1.1910   -0.0030 N   0  0  0  0  0  0  0  0  0  0  0  0
  1  2  3  0  0  0  0
  2  3  1  0  0  0  0
  3  4  2  0  0  0  0
  3 10  1  0  0  0  0
  4  5  1  0  0  0  0
  4  6  1  0  0  0  0
  6  7  1  0  0  0  0
  6  8  1  0  0  0  0
  8  9  1  0  0  0  0
  8 10  2  0  0  0  0
M  END
>  <Catalog ID>
Z1198152494

>  <a_acc>
3

>  <a_don>
2

>  <a_heavy>
7

>  <logP>
-0.73799998

>  <logS>
-0.49294999

>  <TPSA>
52.470001

>  <Weight>
93.088997

$$$$
