Z104495974
  MOE2024           3D

 18 19  0  0  0  0  0  0  0  0999 V2000
   -2.3470   -2.9650   -0.0110 O   0  0  0  0  0  0  0  0  0  0  0  0
   -1.2060   -2.5850   -0.0060 C   0  0  0  0  0  0  0  0  0  0  0  0
   -0.0310   -3.5430   -0.0020 C   0  0  0  0  0  0  0  0  0  0  0  0
   -0.0650   -4.1610   -0.8800 H   0  0  0  0  0  0  0  0  0  0  0  0
   -0.0700   -4.1580    0.8780 H   0  0  0  0  0  0  0  0  0  0  0  0
    1.2210   -2.6400    0.0010 C   0  0  0  0  0  0  0  0  0  0  0  0
    1.8180   -2.8080   -0.8790 H   0  0  0  0  0  0  0  0  0  0  0  0
    1.8160   -2.8090    0.8810 H   0  0  0  0  0  0  0  0  0  0  0  0
    0.6640   -1.2290    0.0010 C   0  0  0  0  0  0  0  0  0  0  0  0
    1.3710   -0.0420    0.0050 C   0  0  0  0  0  0  0  0  0  0  0  0
    2.4480   -0.0430    0.0080 H   0  0  0  0  0  0  0  0  0  0  0  0
    0.6730    1.1560    0.0040 C   0  0  0  0  0  0  0  0  0  0  0  0
    1.2090    2.0890    0.0070 H   0  0  0  0  0  0  0  0  0  0  0  0
   -0.7150    1.1560    0.0000 C   0  0  0  0  0  0  0  0  0  0  0  0
   -1.2510    2.0900    0.0000 H   0  0  0  0  0  0  0  0  0  0  0  0
   -1.4130   -0.0390   -0.0040 C   0  0  0  0  0  0  0  0  0  0  0  0
   -2.4890   -0.0550   -0.0070 H   0  0  0  0  0  0  0  0  0  0  0  0
   -0.7170   -1.2430   -0.0030 C   0  0  0  0  0  0  0  0  0  0  0  0
  1  2  2  0  0  0  0
  2  3  1  0  0  0  0
  2 18  1  0  0  0  0
  3  4  1  0  0  0  0
  3  5  1  0  0  0  0
  3  6  1  0  0  0  0
  6  7  1  0  0  0  0
  6  8  1  0  0  0  0
  6  9  1  0  0  0  0
  9 10  1  0  0  0  0
  9 18  2  0  0  0  0
 10 11  1  0  0  0  0
 10 12  2  0  0  0  0
 12 13  1  0  0  0  0
 12 14  1  0  0  0  0
 14 15  1  0  0  0  0
 14 16  2  0  0  0  0
 16 17  1  0  0  0  0
 16 18  1  0  0  0  0
M  END
>  <Catalog ID>
Z104495974

>  <a_acc>
1

>  <a_don>
0

>  <a_heavy>
10

>  <logP>
1.627

>  <logS>
-1.7555799

>  <TPSA>
17.07

>  <Weight>
132.162

$$$$
Z56871698
  MOE2024           3D

 22 23  0  0  0  0  0  0  0  0999 V2000
   -3.6970   -4.4660   -1.2740 O   0  5  0  0  0  0  0  0  0  0  0  0
   -3.5820   -3.9710   -0.1470 C   0  0  0  0  0  0  0  0  0  0  0  0
   -4.0910   -4.4750    0.8600 O   0  0  0  0  0  0  0  0  0  0  0  0
   -2.9450   -2.6170   -0.0270 C   0  0  0  0  0  0  0  0  0  0  0  0
   -3.3880   -2.1270    0.8180 H   0  0  0  0  0  0  0  0  0  0  0  0
   -3.2130   -2.0860   -0.9180 H   0  0  0  0  0  0  0  0  0  0  0  0
   -1.4310   -2.6180    0.1290 C   0  0  0  0  0  0  0  0  0  0  0  0
   -0.8120   -3.7310    0.3300 N   0  0  0  0  0  0  0  0  0  0  0  0
    0.5500   -3.6950    0.4550 N   0  0  0  0  0  0  0  0  0  0  0  0
    1.0510   -4.5740    0.6040 H   0  0  0  0  0  0  0  0  0  0  0  0
    1.3220   -2.5710    0.3840 C   0  0  0  0  0  0  0  0  0  0  0  0
    2.5330   -2.6770    0.5040 O   0  0  0  0  0  0  0  0  0  0  0  0
    0.6480   -1.3210    0.1750 C   0  0  0  0  0  0  0  0  0  0  0  0
    1.3370   -0.1060    0.0990 C   0  0  0  0  0  0  0  0  0  0  0  0
    2.4100   -0.1120    0.1910 H   0  0  0  0  0  0  0  0  0  0  0  0
    0.6690    1.0820   -0.0890 C   0  0  0  0  0  0  0  0  0  0  0  0
    1.2110    2.0110   -0.1460 H   0  0  0  0  0  0  0  0  0  0  0  0
   -0.7120    1.0780   -0.2030 C   0  0  0  0  0  0  0  0  0  0  0  0
   -1.2380    2.0070   -0.3470 H   0  0  0  0  0  0  0  0  0  0  0  0
   -1.4060   -0.1100   -0.1320 C   0  0  0  0  0  0  0  0  0  0  0  0
   -2.4760   -0.0760   -0.2200 H   0  0  0  0  0  0  0  0  0  0  0  0
   -0.7530   -1.3420    0.0520 C   0  0  0  0  0  0  0  0  0  0  0  0
  1  2  1  0  0  0  0
  2  3  2  0  0  0  0
  2  4  1  0  0  0  0
  4  5  1  0  0  0  0
  4  6  1  0  0  0  0
  4  7  1  0  0  0  0
  7  8  2  0  0  0  0
  7 22  1  0  0  0  0
  8  9  1  0  0  0  0
  9 10  1  0  0  0  0
  9 11  1  0  0  0  0
 11 12  2  0  0  0  0
 11 13  1  0  0  0  0
 13 14  1  0  0  0  0
 13 22  2  0  0  0  0
 14 15  1  0  0  0  0
 14 16  2  0  0  0  0
 16 17  1  0  0  0  0
 16 18  1  0  0  0  0
 18 19  1  0  0  0  0
 18 20  2  0  0  0  0
 20 21  1  0  0  0  0
 20 22  1  0  0  0  0
M  CHG  1   1  -1
M  END
>  <Catalog ID>
Z56871698

>  <a_acc>
2

>  <a_don>
2

>  <a_heavy>
15

>  <logP>
1.237

>  <logS>
-2.3296599

>  <TPSA>
81.589996

>  <Weight>
203.177

$$$$
Z33546380
  MOE2024           3D

 15 15  0  0  0  0  0  0  0  0999 V2000
    3.6350    0.4950    0.9620 N   0  0  0  0  0  0  0  0  0  0  0  0
    4.6470    0.3780    0.9700 H   0  0  0  0  0  0  0  0  0  0  0  0
    3.2280    1.2640    1.4990 H   0  0  0  0  0  0  0  0  0  0  0  0
    2.8460   -0.3510    0.2510 C   0  0  0  0  0  0  0  0  0  0  0  0
    3.4270   -1.2320   -0.3540 O   0  0  0  0  0  0  0  0  0  0  0  0
    1.3870   -0.2040    0.2190 C   0  0  0  0  0  0  0  0  0  0  0  0
    0.6150   -1.0980   -0.5260 C   0  0  0  0  0  0  0  0  0  0  0  0
    1.1060   -1.8860   -1.0690 H   0  0  0  0  0  0  0  0  0  0  0  0
   -0.7570   -0.9850   -0.5750 C   0  0  0  0  0  0  0  0  0  0  0  0
   -1.3590   -1.6710   -1.1480 H   0  0  0  0  0  0  0  0  0  0  0  0
   -1.3200    0.0450    0.1420 C   0  0  0  0  0  0  0  0  0  0  0  0
   -2.3860    0.1910    0.1470 H   0  0  0  0  0  0  0  0  0  0  0  0
   -0.4980    0.8950    0.8590 C   0  0  0  0  0  0  0  0  0  0  0  0
   -0.9520    1.6980    1.4160 H   0  0  0  0  0  0  0  0  0  0  0  0
    0.8180    0.7980    0.9150 N   0  0  0  0  0  0  0  0  0  0  0  0
  1  2  1  0  0  0  0
  1  3  1  0  0  0  0
  1  4  1  0  0  0  0
  4  5  2  0  0  0  0
  4  6  1  0  0  0  0
  6  7  1  0  0  0  0
  6 15  2  0  0  0  0
  7  8  1  0  0  0  0
  7  9  2  0  0  0  0
  9 10  1  0  0  0  0
  9 11  1  0  0  0  0
 11 12  1  0  0  0  0
 11 13  2  0  0  0  0
 13 14  1  0  0  0  0
 13 15  1  0  0  0  0
M  END
>  <Catalog ID>
Z33546380

>  <a_acc>
2

>  <a_don>
1

>  <a_heavy>
9

>  <logP>
-0.42199999

>  <logS>
-0.53178

>  <TPSA>
55.98

>  <Weight>
122.127

$$$$
Z147646794
  MOE2024           3D

 13 13  0  0  0  0  0  0  0  0999 V2000
    2.8210   -0.0100    0.0020 O   0  0  0  0  0  0  0  0  0  0  0  0
    3.1840    0.8970    0.0010 H   0  0  0  0  0  0  0  0  0  0  0  0
    1.4660   -0.0160    0.0010 C   0  0  0  0  0  0  0  0  0  0  0  0
    0.7290   -1.1950    0.0010 C   0  0  0  0  0  0  0  0  0  0  0  0
    1.3450   -2.3500    0.0020 F   0  0  0  0  0  0  0  0  0  0  0  0
   -0.6570   -1.1970    0.0010 C   0  0  0  0  0  0  0  0  0  0  0  0
   -1.1880   -2.1320    0.0010 H   0  0  0  0  0  0  0  0  0  0  0  0
   -1.3410    0.0120    0.0000 C   0  0  0  0  0  0  0  0  0  0  0  0
   -2.4180    0.0210    0.0000 H   0  0  0  0  0  0  0  0  0  0  0  0
   -0.6340    1.2070    0.0000 C   0  0  0  0  0  0  0  0  0  0  0  0
   -1.1480    2.1520    0.0000 H   0  0  0  0  0  0  0  0  0  0  0  0
    0.7500    1.1730    0.0010 C   0  0  0  0  0  0  0  0  0  0  0  0
    1.4030    2.3090    0.0000 F   0  0  0  0  0  0  0  0  0  0  0  0
  1  2  1  0  0  0  0
  1  3  1  0  0  0  0
  3  4  1  0  0  0  0
  3 12  2  0  0  0  0
  4  5  1  0  0  0  0
  4  6  2  0  0  0  0
  6  7  1  0  0  0  0
  6  8  1  0  0  0  0
  8  9  1  0  0  0  0
  8 10  2  0  0  0  0
 10 11  1  0  0  0  0
 10 12  1  0  0  0  0
 12 13  1  0  0  0  0
M  END
>  <Catalog ID>
Z147646794

>  <a_acc>
1

>  <a_don>
1

>  <a_heavy>
9

>  <logP>
1.9

>  <logS>
-1.61289

>  <TPSA>
20.23

>  <Weight>
130.093

$$$$
Z57200682
  MOE2024           3D

 19 20  0  0  0  0  0  0  0  0999 V2000
   -0.0670   -4.9210    0.0040 C   0  0  0  0  0  0  0  0  0  0  0  0
    0.9180   -5.3530    0.0060 H   0  0  0  0  0  0  0  0  0  0  0  0
   -0.5880   -5.2610   -0.8730 H   0  0  0  0  0  0  0  0  0  0  0  0
   -0.5920   -5.2590    0.8790 H   0  0  0  0  0  0  0  0  0  0  0  0
    0.0280   -3.4080    0.0020 C   0  0  0  0  0  0  0  0  0  0  0  0
    1.1370   -2.6300    0.0040 C   0  0  0  0  0  0  0  0  0  0  0  0
    2.1680   -2.9370    0.0070 H   0  0  0  0  0  0  0  0  0  0  0  0
    0.7210   -1.2810    0.0010 C   0  0  0  0  0  0  0  0  0  0  0  0
    1.3970   -0.0570    0.0010 C   0  0  0  0  0  0  0  0  0  0  0  0
    2.4710   -0.0530    0.0040 H   0  0  0  0  0  0  0  0  0  0  0  0
    0.6750    1.1150   -0.0020 C   0  0  0  0  0  0  0  0  0  0  0  0
    1.1810    2.0640   -0.0020 H   0  0  0  0  0  0  0  0  0  0  0  0
   -0.7260    1.0880   -0.0050 C   0  0  0  0  0  0  0  0  0  0  0  0
   -1.2670    2.0180   -0.0080 H   0  0  0  0  0  0  0  0  0  0  0  0
   -1.4030   -0.1100   -0.0060 C   0  0  0  0  0  0  0  0  0  0  0  0
   -2.4770   -0.1400   -0.0080 H   0  0  0  0  0  0  0  0  0  0  0  0
   -0.6690   -1.2990   -0.0020 C   0  0  0  0  0  0  0  0  0  0  0  0
   -1.0810   -2.6070   -0.0020 N   0  0  0  0  0  0  0  0  0  0  0  0
   -2.0570   -2.9180   -0.0040 H   0  0  0  0  0  0  0  0  0  0  0  0
  1  2  1  0  0  0  0
  1  3  1  0  0  0  0
  1  4  1  0  0  0  0
  1  5  1  0  0  0  0
  5  6  2  0  0  0  0
  5 18  1  0  0  0  0
  6  7  1  0  0  0  0
  6  8  1  0  0  0  0
  8  9  1  0  0  0  0
  8 17  2  0  0  0  0
  9 10  1  0  0  0  0
  9 11  2  0  0  0  0
 11 12  1  0  0  0  0
 11 13  1  0  0  0  0
 13 14  1  0  0  0  0
 13 15  2  0  0  0  0
 15 16  1  0  0  0  0
 15 17  1  0  0  0  0
 17 18  1  0  0  0  0
 18 19  1  0  0  0  0
M  END
>  <Catalog ID>
Z57200682

>  <a_acc>
0

>  <a_don>
1

>  <a_heavy>
10

>  <logP>
2.5710001

>  <logS>
-1.98817

>  <TPSA>
15.79

>  <Weight>
131.17799

$$$$
Z104378302
  MOE2024           3D

 18 19  0  0  0  0  0  0  0  0999 V2000
    0.0000   -4.7140    0.0030 N   0  0  0  0  0  0  0  0  0  0  0  0
   -0.8570   -5.2650    0.0010 H   0  0  0  0  0  0  0  0  0  0  0  0
    0.8580   -5.2640    0.0070 H   0  0  0  0  0  0  0  0  0  0  0  0
   -0.0010   -3.4020    0.0010 C   0  0  0  0  0  0  0  0  0  0  0  0
    1.0850   -2.6500    0.0040 N   0  0  0  0  0  0  0  0  0  0  0  0
    2.0510   -2.9670    0.0090 H   0  0  0  0  0  0  0  0  0  0  0  0
    0.6890   -1.3230    0.0010 C   0  0  0  0  0  0  0  0  0  0  0  0
    1.4030   -0.1320    0.0020 C   0  0  0  0  0  0  0  0  0  0  0  0
    2.4780   -0.1360    0.0060 H   0  0  0  0  0  0  0  0  0  0  0  0
    0.6940    1.0550   -0.0020 C   0  0  0  0  0  0  0  0  0  0  0  0
    1.2190    1.9970   -0.0010 H   0  0  0  0  0  0  0  0  0  0  0  0
   -0.7020    1.0540   -0.0070 C   0  0  0  0  0  0  0  0  0  0  0  0
   -1.2280    1.9950   -0.0110 H   0  0  0  0  0  0  0  0  0  0  0  0
   -1.4090   -0.1340   -0.0090 C   0  0  0  0  0  0  0  0  0  0  0  0
   -2.4850   -0.1390   -0.0130 H   0  0  0  0  0  0  0  0  0  0  0  0
   -0.6940   -1.3240   -0.0040 C   0  0  0  0  0  0  0  0  0  0  0  0
   -1.0880   -2.6510   -0.0040 N   0  3  0  0  0  0  0  0  0  0  0  0
   -2.0540   -2.9700   -0.0070 H   0  0  0  0  0  0  0  0  0  0  0  0
  1  2  1  0  0  0  0
  1  3  1  0  0  0  0
  1  4  1  0  0  0  0
  4  5  1  0  0  0  0
  4 17  2  0  0  0  0
  5  6  1  0  0  0  0
  5  7  1  0  0  0  0
  7  8  1  0  0  0  0
  7 16  2  0  0  0  0
  8  9  1  0  0  0  0
  8 10  2  0  0  0  0
 10 11  1  0  0  0  0
 10 12  1  0  0  0  0
 12 13  1  0  0  0  0
 12 14  2  0  0  0  0
 14 15  1  0  0  0  0
 14 16  1  0  0  0  0
 16 17  1  0  0  0  0
 17 18  1  0  0  0  0
M  CHG  1  17   1
M  END
>  <Catalog ID>
Z104378302

>  <a_acc>
0

>  <a_don>
0

>  <a_heavy>
10

>  <logP>
1.533

>  <logS>
-2.1028099

>  <TPSA>
55.950001

>  <Weight>
134.162

$$$$
Z33546479
  MOE2024           3D

 16 16  0  0  0  0  0  0  0  0999 V2000
    3.6470   -1.1010   -0.4320 N   0  0  0  0  0  0  0  0  0  0  0  0
    4.6650   -1.0210   -0.4440 H   0  0  0  0  0  0  0  0  0  0  0  0
    3.2470   -1.9250   -0.8770 H   0  0  0  0  0  0  0  0  0  0  0  0
    2.9260   -0.0340   -0.0160 C   0  0  0  0  0  0  0  0  0  0  0  0
    3.5630    0.9340    0.3340 O   0  0  0  0  0  0  0  0  0  0  0  0
    1.4720   -0.0350   -0.0040 C   0  0  0  0  0  0  0  0  0  0  0  0
    0.7280   -1.2200    0.0440 C   0  0  0  0  0  0  0  0  0  0  0  0
    1.2400   -2.1640    0.0880 H   0  0  0  0  0  0  0  0  0  0  0  0
   -0.6570   -1.2140    0.0450 C   0  0  0  0  0  0  0  0  0  0  0  0
   -1.2040   -2.1410    0.0810 H   0  0  0  0  0  0  0  0  0  0  0  0
   -1.3410   -0.0120    0.0030 C   0  0  0  0  0  0  0  0  0  0  0  0
   -2.4160    0.0170    0.0030 H   0  0  0  0  0  0  0  0  0  0  0  0
   -0.6190    1.1650   -0.0350 C   0  0  0  0  0  0  0  0  0  0  0  0
   -1.4750    2.6850   -0.0840 Cl  0  0  0  0  0  0  0  0  0  0  0  0
    0.7600    1.1640   -0.0370 C   0  0  0  0  0  0  0  0  0  0  0  0
    1.2910    2.1000   -0.0650 H   0  0  0  0  0  0  0  0  0  0  0  0
  1  2  1  0  0  0  0
  1  3  1  0  0  0  0
  1  4  1  0  0  0  0
  4  5  2  0  0  0  0
  4  6  1  0  0  0  0
  6  7  1  0  0  0  0
  6 15  2  0  0  0  0
  7  8  1  0  0  0  0
  7  9  2  0  0  0  0
  9 10  1  0  0  0  0
  9 11  1  0  0  0  0
 11 12  1  0  0  0  0
 11 13  2  0  0  0  0
 13 14  1  0  0  0  0
 13 15  1  0  0  0  0
 15 16  1  0  0  0  0
M  END
>  <Catalog ID>
Z33546479

>  <a_acc>
1

>  <a_don>
1

>  <a_heavy>
10

>  <logP>
1.478

>  <logS>
-2.37129

>  <TPSA>
43.09

>  <Weight>
155.584

$$$$
Z336087926
  MOE2024           3D

 23 23  0  0  0  0  0  0  0  0999 V2000
    5.1710   -1.2190    0.0260 C   0  0  0  0  0  0  0  0  0  0  0  0
    5.6270   -2.1930    0.0660 H   0  0  0  0  0  0  0  0  0  0  0  0
    5.4890   -0.6590    0.8880 H   0  0  0  0  0  0  0  0  0  0  0  0
    5.5150   -0.7180   -0.8610 H   0  0  0  0  0  0  0  0  0  0  0  0
    3.6450   -1.3570    0.0090 C   0  0  0  0  0  0  0  0  0  0  0  0
    3.3290   -1.8790    0.8960 H   0  0  0  0  0  0  0  0  0  0  0  0
    3.3590   -1.9380   -0.8500 H   0  0  0  0  0  0  0  0  0  0  0  0
    2.9580    0.0160   -0.0460 C   0  0  0  0  0  0  0  0  0  0  0  0
    3.2770    0.5230   -0.9390 H   0  0  0  0  0  0  0  0  0  0  0  0
    3.2940    0.5930    0.7980 H   0  0  0  0  0  0  0  0  0  0  0  0
    1.4240    0.0030   -0.0260 C   0  0  0  0  0  0  0  0  0  0  0  0
    0.6910   -1.1770   -0.0830 C   0  0  0  0  0  0  0  0  0  0  0  0
    1.1760   -2.1330   -0.1490 H   0  0  0  0  0  0  0  0  0  0  0  0
   -0.6930   -1.1590   -0.0540 C   0  0  0  0  0  0  0  0  0  0  0  0
   -1.2440   -2.0820   -0.0980 H   0  0  0  0  0  0  0  0  0  0  0  0
   -1.3660    0.0440    0.0360 C   0  0  0  0  0  0  0  0  0  0  0  0
   -2.4420    0.0610    0.0650 H   0  0  0  0  0  0  0  0  0  0  0  0
   -0.6510    1.2240    0.0910 C   0  0  0  0  0  0  0  0  0  0  0  0
   -1.1720    2.1590    0.1660 H   0  0  0  0  0  0  0  0  0  0  0  0
    0.7380    1.2180    0.0540 C   0  0  0  0  0  0  0  0  0  0  0  0
    1.4040    2.4330    0.0890 N   0  0  0  0  0  0  0  0  0  0  0  0
    0.8670    3.2440   -0.2250 H   0  0  0  0  0  0  0  0  0  0  0  0
    2.3480    2.4270   -0.3040 H   0  0  0  0  0  0  0  0  0  0  0  0
  1  2  1  0  0  0  0
  1  3  1  0  0  0  0
  1  4  1  0  0  0  0
  1  5  1  0  0  0  0
  5  6  1  0  0  0  0
  5  7  1  0  0  0  0
  5  8  1  0  0  0  0
  8  9  1  0  0  0  0
  8 10  1  0  0  0  0
  8 11  1  0  0  0  0
 11 12  1  0  0  0  0
 11 20  2  0  0  0  0
 12 13  1  0  0  0  0
 12 14  2  0  0  0  0
 14 15  1  0  0  0  0
 14 16  1  0  0  0  0
 16 17  1  0  0  0  0
 16 18  2  0  0  0  0
 18 19  1  0  0  0  0
 18 20  1  0  0  0  0
 20 21  1  0  0  0  0
 21 22  1  0  0  0  0
 21 23  1  0  0  0  0
M  END
>  <Catalog ID>
Z336087926

>  <a_acc>
0

>  <a_don>
1

>  <a_heavy>
10

>  <logP>
2.447

>  <logS>
-2.29667

>  <TPSA>
26.02

>  <Weight>
135.20999

$$$$
Z57493539
  MOE2024           3D

 18 18  0  0  0  0  0  0  0  0999 V2000
    2.7800    0.0790   -0.0150 C   0  0  0  0  0  0  0  0  0  0  0  0
    3.2030   -0.9050   -0.1050 H   0  0  0  0  0  0  0  0  0  0  0  0
    3.1390    0.5300    0.8920 H   0  0  0  0  0  0  0  0  0  0  0  0
    3.1030    0.6750   -0.8480 H   0  0  0  0  0  0  0  0  0  0  0  0
    1.2670    0.0260    0.0120 C   0  0  0  0  0  0  0  0  0  0  0  0
    0.6080   -1.1890   -0.0800 C   0  0  0  0  0  0  0  0  0  0  0  0
    1.1630   -2.1060   -0.1680 H   0  0  0  0  0  0  0  0  0  0  0  0
   -0.7700   -1.2180   -0.0580 C   0  0  0  0  0  0  0  0  0  0  0  0
   -1.3130   -2.1460   -0.1250 H   0  0  0  0  0  0  0  0  0  0  0  0
   -1.4520   -0.0140    0.0540 C   0  0  0  0  0  0  0  0  0  0  0  0
   -0.6720    1.1380    0.1520 C   0  0  0  0  0  0  0  0  0  0  0  0
   -1.1770    2.0810    0.2640 H   0  0  0  0  0  0  0  0  0  0  0  0
    0.6500    1.1890    0.1280 N   0  0  0  0  0  0  0  0  0  0  0  0
   -2.9000    0.0430    0.0690 C   0  0  0  0  0  0  0  0  0  0  0  0
   -3.5890    1.1340   -0.3400 N   0  0  0  0  0  0  0  0  0  0  0  0
   -4.6090    1.0850   -0.3340 H   0  0  0  0  0  0  0  0  0  0  0  0
   -3.1790    1.9280   -0.8310 H   0  0  0  0  0  0  0  0  0  0  0  0
   -3.5660   -0.9000    0.4350 O   0  0  0  0  0  0  0  0  0  0  0  0
  1  2  1  0  0  0  0
  1  3  1  0  0  0  0
  1  4  1  0  0  0  0
  1  5  1  0  0  0  0
  5  6  1  0  0  0  0
  5 13  2  0  0  0  0
  6  7  1  0  0  0  0
  6  8  2  0  0  0  0
  8  9  1  0  0  0  0
  8 10  1  0  0  0  0
 10 11  2  0  0  0  0
 10 14  1  0  0  0  0
 11 12  1  0  0  0  0
 11 13  1  0  0  0  0
 14 15  1  0  0  0  0
 14 18  2  0  0  0  0
 15 16  1  0  0  0  0
 15 17  1  0  0  0  0
M  END
>  <Catalog ID>
Z57493539

>  <a_acc>
2

>  <a_don>
1

>  <a_heavy>
10

>  <logP>
-0.125

>  <logS>
-0.69225001

>  <TPSA>
55.98

>  <Weight>
136.15399

$$$$
Z45415581
  MOE2024           3D

 17 17  0  0  0  0  0  0  0  0999 V2000
    3.9220    0.3680    0.6370 N   0  0  0  0  0  0  0  0  0  0  0  0
    4.0480    1.3710    0.5270 H   0  0  0  0  0  0  0  0  0  0  0  0
    4.8430   -0.0450    0.5190 H   0  0  0  0  0  0  0  0  0  0  0  0
    3.1200   -0.0760   -0.7440 S   0  0  0  0  0  0  0  0  0  0  0  0
    3.5770   -1.4220   -0.9890 O   0  0  0  0  0  0  0  0  0  0  0  0
    3.4680    0.9720   -1.6680 O   0  0  0  0  0  0  0  0  0  0  0  0
    1.3700   -0.0590   -0.3060 C   0  0  0  0  0  0  0  0  0  0  0  0
    0.5750   -1.1980   -0.3900 C   0  0  0  0  0  0  0  0  0  0  0  0
    1.0120   -2.1260   -0.7240 H   0  0  0  0  0  0  0  0  0  0  0  0
   -0.7700   -1.1620   -0.0520 C   0  0  0  0  0  0  0  0  0  0  0  0
   -1.3660   -2.0560   -0.1250 H   0  0  0  0  0  0  0  0  0  0  0  0
   -1.3510    0.0190    0.3810 C   0  0  0  0  0  0  0  0  0  0  0  0
   -2.3960    0.0440    0.6430 H   0  0  0  0  0  0  0  0  0  0  0  0
   -0.5830    1.1660    0.4760 C   0  0  0  0  0  0  0  0  0  0  0  0
   -1.0110    2.0940    0.8100 H   0  0  0  0  0  0  0  0  0  0  0  0
    0.7560    1.1020    0.1330 C   0  0  0  0  0  0  0  0  0  0  0  0
    1.4570    2.1990    0.2380 F   0  0  0  0  0  0  0  0  0  0  0  0
  1  2  1  0  0  0  0
  1  3  1  0  0  0  0
  1  4  1  0  0  0  0
  4  5  2  0  0  0  0
  4  6  2  0  0  0  0
  4  7  1  0  0  0  0
  7  8  1  0  0  0  0
  7 16  2  0  0  0  0
  8  9  1  0  0  0  0
  8 10  2  0  0  0  0
 10 11  1  0  0  0  0
 10 12  1  0  0  0  0
 12 13  1  0  0  0  0
 12 14  2  0  0  0  0
 14 15  1  0  0  0  0
 14 16  1  0  0  0  0
 16 17  1  0  0  0  0
M  END
>  <Catalog ID>
Z45415581

>  <a_acc>
2

>  <a_don>
1

>  <a_heavy>
11

>  <logP>
0.48500001

>  <logS>
-1.9064699

>  <TPSA>
60.16

>  <Weight>
175.183

$$$$
Z56858257
  MOE2024           3D

 16 17  0  0  0  0  0  0  0  0999 V2000
    0.1850   -4.8530    0.0010 N   0  0  0  0  0  0  0  0  0  0  0  0
   -0.6300   -5.4670    0.0020 H   0  0  0  0  0  0  0  0  0  0  0  0
    1.1060   -5.2930    0.0000 H   0  0  0  0  0  0  0  0  0  0  0  0
    0.0870   -3.5040    0.0010 C   0  0  0  0  0  0  0  0  0  0  0  0
    1.0540   -2.6700   -0.0010 N   0  0  0  0  0  0  0  0  0  0  0  0
    0.5880   -1.3650    0.0000 C   0  0  0  0  0  0  0  0  0  0  0  0
    1.3940   -0.2310   -0.0020 C   0  0  0  0  0  0  0  0  0  0  0  0
    2.4630   -0.3530   -0.0030 H   0  0  0  0  0  0  0  0  0  0  0  0
    0.8120    1.0290   -0.0010 C   0  0  0  0  0  0  0  0  0  0  0  0
    1.4190    1.9170   -0.0020 H   0  0  0  0  0  0  0  0  0  0  0  0
   -0.5740    1.1390    0.0010 C   0  0  0  0  0  0  0  0  0  0  0  0
   -1.3570    2.8960    0.0020 Br  0  0  0  0  0  0  0  0  0  0  0  0
   -1.4110    0.0380    0.0030 C   0  0  0  0  0  0  0  0  0  0  0  0
   -2.4810    0.1360    0.0050 H   0  0  0  0  0  0  0  0  0  0  0  0
   -0.7880   -1.1950    0.0020 C   0  0  0  0  0  0  0  0  0  0  0  0
   -1.5220   -2.7830    0.0040 S   0  0  0  0  0  0  0  0  0  0  0  0
  1  2  1  0  0  0  0
  1  3  1  0  0  0  0
  1  4  1  0  0  0  0
  4  5  2  0  0  0  0
  4 16  1  0  0  0  0
  5  6  1  0  0  0  0
  6  7  1  0  0  0  0
  6 15  2  0  0  0  0
  7  8  1  0  0  0  0
  7  9  2  0  0  0  0
  9 10  1  0  0  0  0
  9 11  1  0  0  0  0
 11 12  1  0  0  0  0
 11 13  2  0  0  0  0
 13 14  1  0  0  0  0
 13 15  1  0  0  0  0
 15 16  1  0  0  0  0
M  END
>  <Catalog ID>
Z56858257

>  <a_acc>
1

>  <a_don>
1

>  <a_heavy>
11

>  <logP>
2.6960001

>  <logS>
-3.483

>  <TPSA>
38.91

>  <Weight>
229.101

$$$$
Z94601331
  MOE2024           3D

 18 18  0  0  0  0  0  0  0  0999 V2000
    5.2120   -0.8170    0.2500 C   0  0  0  0  0  0  0  0  0  0  0  0
    5.7320   -0.3890    1.0890 H   0  0  0  0  0  0  0  0  0  0  0  0
    5.6020   -0.4010   -0.6630 H   0  0  0  0  0  0  0  0  0  0  0  0
    5.3670   -1.8830    0.2400 H   0  0  0  0  0  0  0  0  0  0  0  0
    3.7620   -0.5270    0.3480 N   0  0  0  0  0  0  0  0  0  0  0  0
    3.4430    0.0460    1.1360 H   0  0  0  0  0  0  0  0  0  0  0  0
    2.8020   -0.9540   -0.5330 C   0  0  0  0  0  0  0  0  0  0  0  0
    3.1590   -1.6330   -1.4800 O   0  0  0  0  0  0  0  0  0  0  0  0
    1.3940   -0.6010   -0.3320 C   0  0  0  0  0  0  0  0  0  0  0  0
    0.4320   -1.0530   -1.2340 C   0  0  0  0  0  0  0  0  0  0  0  0
    0.7200   -1.6570   -2.0750 H   0  0  0  0  0  0  0  0  0  0  0  0
   -0.8860   -0.7250   -1.0450 C   0  0  0  0  0  0  0  0  0  0  0  0
   -2.1060   -1.2790   -2.1570 Cl  0  0  0  0  0  0  0  0  0  0  0  0
   -1.2330    0.0470    0.0360 C   0  0  0  0  0  0  0  0  0  0  0  0
   -2.2580    0.3190    0.2090 H   0  0  0  0  0  0  0  0  0  0  0  0
   -0.2250    0.4580    0.8850 C   0  0  0  0  0  0  0  0  0  0  0  0
   -0.4850    1.0660    1.7370 H   0  0  0  0  0  0  0  0  0  0  0  0
    1.0520    0.1580    0.7290 N   0  0  0  0  0  0  0  0  0  0  0  0
  1  2  1  0  0  0  0
  1  3  1  0  0  0  0
  1  4  1  0  0  0  0
  1  5  1  0  0  0  0
  5  6  1  0  0  0  0
  5  7  1  0  0  0  0
  7  8  2  0  0  0  0
  7  9  1  0  0  0  0
  9 10  1  0  0  0  0
  9 18  2  0  0  0  0
 10 11  1  0  0  0  0
 10 12  2  0  0  0  0
 12 13  1  0  0  0  0
 12 14  1  0  0  0  0
 14 15  1  0  0  0  0
 14 16  2  0  0  0  0
 16 17  1  0  0  0  0
 16 18  1  0  0  0  0
M  END
>  <Catalog ID>
Z94601331

>  <a_acc>
2

>  <a_don>
1

>  <a_heavy>
11

>  <logP>
0.56300002

>  <logS>
-1.16008

>  <TPSA>
41.990002

>  <Weight>
170.599

$$$$
Z56926518
  MOE2024           3D

 18 19  0  0  0  0  0  0  0  0999 V2000
   -2.7150   -2.4940   -0.0080 O   0  0  0  0  0  0  0  0  0  0  0  0
   -3.0180   -1.5600   -0.0060 H   0  0  0  0  0  0  0  0  0  0  0  0
   -1.3720   -2.5130   -0.0050 C   0  0  0  0  0  0  0  0  0  0  0  0
   -0.7050   -3.7100   -0.0060 C   0  0  0  0  0  0  0  0  0  0  0  0
   -1.2540   -4.6350   -0.0090 H   0  0  0  0  0  0  0  0  0  0  0  0
    0.6920   -3.7240   -0.0030 C   0  0  0  0  0  0  0  0  0  0  0  0
    1.2060   -4.6710   -0.0040 H   0  0  0  0  0  0  0  0  0  0  0  0
    1.3890   -2.5440    0.0000 C   0  0  0  0  0  0  0  0  0  0  0  0
    2.4650   -2.5520    0.0020 H   0  0  0  0  0  0  0  0  0  0  0  0
    0.7240   -1.3010    0.0010 C   0  0  0  0  0  0  0  0  0  0  0  0
    1.4040   -0.0720    0.0050 C   0  0  0  0  0  0  0  0  0  0  0  0
    2.4800   -0.0570    0.0060 H   0  0  0  0  0  0  0  0  0  0  0  0
    0.6680    1.0740    0.0050 C   0  0  0  0  0  0  0  0  0  0  0  0
    1.1370    2.0410    0.0080 H   0  0  0  0  0  0  0  0  0  0  0  0
   -0.7320    0.9990    0.0030 C   0  0  0  0  0  0  0  0  0  0  0  0
   -1.2820    1.9250    0.0030 H   0  0  0  0  0  0  0  0  0  0  0  0
   -1.4060   -0.1120   -0.0010 N   0  0  0  0  0  0  0  0  0  0  0  0
   -0.6890   -1.2750   -0.0020 C   0  0  0  0  0  0  0  0  0  0  0  0
  1  2  1  0  0  0  0
  1  3  1  0  0  0  0
  3  4  1  0  0  0  0
  3 18  2  0  0  0  0
  4  5  1  0  0  0  0
  4  6  2  0  0  0  0
  6  7  1  0  0  0  0
  6  8  1  0  0  0  0
  8  9  1  0  0  0  0
  8 10  2  0  0  0  0
 10 11  1  0  0  0  0
 10 18  1  0  0  0  0
 11 12  1  0  0  0  0
 11 13  2  0  0  0  0
 13 14  1  0  0  0  0
 13 15  1  0  0  0  0
 15 16  1  0  0  0  0
 15 17  2  0  0  0  0
 17 18  1  0  0  0  0
M  END
>  <Catalog ID>
Z56926518

>  <a_acc>
2

>  <a_don>
1

>  <a_heavy>
11

>  <logP>
1.798

>  <logS>
-1.61147

>  <TPSA>
33.119999

>  <Weight>
145.161

$$$$
Z56946871
  MOE2024           3D

 16 16  0  0  0  0  0  0  0  0999 V2000
    2.7570   -0.1780    0.2790 N   0  0  0  0  0  0  0  0  0  0  0  0
    3.1780    0.7820    0.2820 H   0  0  0  0  0  0  0  0  0  0  0  0
    3.2100   -0.7070   -0.4640 H   0  0  0  0  0  0  0  0  0  0  0  0
    1.3920   -0.0560    0.1540 C   0  0  0  0  0  0  0  0  0  0  0  0
    0.6270   -1.2180    0.1880 C   0  0  0  0  0  0  0  0  0  0  0  0
    1.1270   -2.1610    0.3150 H   0  0  0  0  0  0  0  0  0  0  0  0
   -0.7470   -1.1690    0.0720 C   0  0  0  0  0  0  0  0  0  0  0  0
   -1.3480   -2.0570    0.0990 H   0  0  0  0  0  0  0  0  0  0  0  0
   -1.3370    0.0700   -0.0780 C   0  0  0  0  0  0  0  0  0  0  0  0
   -2.6410    0.1310   -0.1880 F   0  0  0  0  0  0  0  0  0  0  0  0
   -0.6040    1.2370   -0.1170 C   0  0  0  0  0  0  0  0  0  0  0  0
   -1.1090    2.1810   -0.2360 H   0  0  0  0  0  0  0  0  0  0  0  0
    0.7910    1.2080   -0.0050 C   0  0  0  0  0  0  0  0  0  0  0  0
    1.5410    2.4580   -0.0700 C   0  0  0  0  0  0  0  0  0  0  0  0
    0.9410    3.5460   -0.1560 O   0  5  0  0  0  0  0  0  0  0  0  0
    2.7900    2.4870   -0.0600 O   0  0  0  0  0  0  0  0  0  0  0  0
  1  2  1  0  0  0  0
  1  3  1  0  0  0  0
  1  4  1  0  0  0  0
  4  5  1  0  0  0  0
  4 13  2  0  0  0  0
  5  6  1  0  0  0  0
  5  7  2  0  0  0  0
  7  8  1  0  0  0  0
  7  9  1  0  0  0  0
  9 10  1  0  0  0  0
  9 11  2  0  0  0  0
 11 12  1  0  0  0  0
 11 13  1  0  0  0  0
 13 14  1  0  0  0  0
 14 15  1  0  0  0  0
 14 16  2  0  0  0  0
M  CHG  1  15  -1
M  END
>  <Catalog ID>
Z56946871

>  <a_acc>
0

>  <a_don>
1

>  <a_heavy>
11

>  <logP>
1.22

>  <logS>
-1.63059

>  <TPSA>
66.150002

>  <Weight>
154.12

$$$$
Z111833788
  MOE2024           3D

 19 19  0  0  0  0  0  0  0  0999 V2000
    2.8620    0.1550   -0.0730 C   0  0  0  0  0  0  0  0  0  0  0  0
    3.3070   -0.8220   -0.1220 H   0  0  0  0  0  0  0  0  0  0  0  0
    3.2350    0.6640    0.7970 H   0  0  0  0  0  0  0  0  0  0  0  0
    3.1480    0.7090   -0.9490 H   0  0  0  0  0  0  0  0  0  0  0  0
    1.3500    0.0600    0.0010 C   0  0  0  0  0  0  0  0  0  0  0  0
    0.7150   -1.1640    0.1220 C   0  0  0  0  0  0  0  0  0  0  0  0
    1.2860   -2.0730    0.1660 H   0  0  0  0  0  0  0  0  0  0  0  0
   -0.6610   -1.2140    0.1910 C   0  0  0  0  0  0  0  0  0  0  0  0
   -1.1630   -2.1570    0.2930 H   0  0  0  0  0  0  0  0  0  0  0  0
   -1.4260   -0.0560    0.1410 C   0  0  0  0  0  0  0  0  0  0  0  0
   -2.7960   -0.1720    0.2130 N   0  0  0  0  0  0  0  0  0  0  0  0
   -3.2100    0.7910    0.2040 H   0  0  0  0  0  0  0  0  0  0  0  0
   -3.2190   -0.6970   -0.5490 H   0  0  0  0  0  0  0  0  0  0  0  0
   -0.8090    1.2010    0.0120 C   0  0  0  0  0  0  0  0  0  0  0  0
    0.5880    1.2140   -0.0500 C   0  0  0  0  0  0  0  0  0  0  0  0
    1.0810    2.1670   -0.1440 H   0  0  0  0  0  0  0  0  0  0  0  0
   -1.5470    2.4580   -0.0700 C   0  0  0  0  0  0  0  0  0  0  0  0
   -2.7970    2.4980   -0.1050 O   0  5  0  0  0  0  0  0  0  0  0  0
   -0.9410    3.5460   -0.1250 O   0  0  0  0  0  0  0  0  0  0  0  0
  1  2  1  0  0  0  0
  1  3  1  0  0  0  0
  1  4  1  0  0  0  0
  1  5  1  0  0  0  0
  5  6  1  0  0  0  0
  5 15  2  0  0  0  0
  6  7  1  0  0  0  0
  6  8  2  0  0  0  0
  8  9  1  0  0  0  0
  8 10  1  0  0  0  0
 10 11  1  0  0  0  0
 10 14  2  0  0  0  0
 11 12  1  0  0  0  0
 11 13  1  0  0  0  0
 14 15  1  0  0  0  0
 14 17  1  0  0  0  0
 15 16  1  0  0  0  0
 17 18  1  0  0  0  0
 17 19  2  0  0  0  0
M  CHG  1  18  -1
M  END
>  <Catalog ID>
Z111833788

>  <a_acc>
0

>  <a_don>
1

>  <a_heavy>
11

>  <logP>
1.365

>  <logS>
-1.80953

>  <TPSA>
66.150002

>  <Weight>
150.157

$$$$
Z56801375
  MOE2024           3D

 20 21  0  0  0  0  0  0  0  0999 V2000
   -2.6550   -2.5920   -0.0090 O   0  0  0  0  0  0  0  0  0  0  0  0
   -1.4430   -2.5230   -0.0050 C   0  0  0  0  0  0  0  0  0  0  0  0
   -0.7660   -3.6970   -0.0060 N   0  0  0  0  0  0  0  0  0  0  0  0
   -1.3450   -4.5400   -0.0090 H   0  0  0  0  0  0  0  0  0  0  0  0
    0.7030   -3.8630   -0.0020 C   0  0  0  0  0  0  0  0  0  0  0  0
    0.9830   -4.4320   -0.8730 H   0  0  0  0  0  0  0  0  0  0  0  0
    0.9790   -4.4360    0.8670 H   0  0  0  0  0  0  0  0  0  0  0  0
    1.4850   -2.5330    0.0030 C   0  0  0  0  0  0  0  0  0  0  0  0
    2.1320   -2.5240   -0.8560 H   0  0  0  0  0  0  0  0  0  0  0  0
    2.1250   -2.5280    0.8670 H   0  0  0  0  0  0  0  0  0  0  0  0
    0.6700   -1.2400    0.0030 C   0  0  0  0  0  0  0  0  0  0  0  0
    1.3500   -0.0330    0.0070 C   0  0  0  0  0  0  0  0  0  0  0  0
    2.4260   -0.0160    0.0100 H   0  0  0  0  0  0  0  0  0  0  0  0
    0.6600    1.1660    0.0080 C   0  0  0  0  0  0  0  0  0  0  0  0
    1.1960    2.0990    0.0110 H   0  0  0  0  0  0  0  0  0  0  0  0
   -0.7220    1.1600    0.0040 C   0  0  0  0  0  0  0  0  0  0  0  0
   -1.2670    2.0890    0.0040 H   0  0  0  0  0  0  0  0  0  0  0  0
   -1.4040   -0.0420   -0.0010 C   0  0  0  0  0  0  0  0  0  0  0  0
   -2.4800   -0.0440   -0.0040 H   0  0  0  0  0  0  0  0  0  0  0  0
   -0.7280   -1.2630   -0.0010 C   0  0  0  0  0  0  0  0  0  0  0  0
  1  2  2  0  0  0  0
  2  3  1  0  0  0  0
  2 20  1  0  0  0  0
  3  4  1  0  0  0  0
  3  5  1  0  0  0  0
  5  6  1  0  0  0  0
  5  7  1  0  0  0  0
  5  8  1  0  0  0  0
  8  9  1  0  0  0  0
  8 10  1  0  0  0  0
  8 11  1  0  0  0  0
 11 12  1  0  0  0  0
 11 20  2  0  0  0  0
 12 13  1  0  0  0  0
 12 14  2  0  0  0  0
 14 15  1  0  0  0  0
 14 16  1  0  0  0  0
 16 17  1  0  0  0  0
 16 18  2  0  0  0  0
 18 19  1  0  0  0  0
 18 20  1  0  0  0  0
M  END
>  <Catalog ID>
Z56801375

>  <a_acc>
1

>  <a_don>
1

>  <a_heavy>
11

>  <logP>
1.1109999

>  <logS>
-1.71488

>  <TPSA>
29.1

>  <Weight>
147.177

$$$$
Z513733856
  MOE2024           3D

 22 22  0  0  0  0  0  0  0  0999 V2000
    5.9380   -2.5020    0.0020 C   0  0  0  0  0  0  0  0  0  0  0  0
    7.0030   -2.3470    0.0050 H   0  0  0  0  0  0  0  0  0  0  0  0
    5.6800   -3.0720   -0.8730 H   0  0  0  0  0  0  0  0  0  0  0  0
    5.6750   -3.0690    0.8780 H   0  0  0  0  0  0  0  0  0  0  0  0
    5.2170   -1.1510   -0.0030 C   0  0  0  0  0  0  0  0  0  0  0  0
    5.5150   -0.5900   -0.8730 H   0  0  0  0  0  0  0  0  0  0  0  0
    5.5100   -0.5860    0.8670 H   0  0  0  0  0  0  0  0  0  0  0  0
    3.6880   -1.3290   -0.0060 C   0  0  0  0  0  0  0  0  0  0  0  0
    3.4080   -1.8920    0.8660 H   0  0  0  0  0  0  0  0  0  0  0  0
    3.4120   -1.8950   -0.8780 H   0  0  0  0  0  0  0  0  0  0  0  0
    2.8930   -0.0220   -0.0100 C   0  0  0  0  0  0  0  0  0  0  0  0
    3.5000    1.0180   -0.0170 O   0  0  0  0  0  0  0  0  0  0  0  0
    1.4460   -0.0690   -0.0060 C   0  0  0  0  0  0  0  0  0  0  0  0
    0.7050   -1.2490   -0.0040 C   0  0  0  0  0  0  0  0  0  0  0  0
    1.1750   -2.2160   -0.0060 H   0  0  0  0  0  0  0  0  0  0  0  0
   -0.6700   -1.1610    0.0010 C   0  0  0  0  0  0  0  0  0  0  0  0
   -1.2780   -2.0480    0.0030 H   0  0  0  0  0  0  0  0  0  0  0  0
   -1.2710    0.0850    0.0030 C   0  0  0  0  0  0  0  0  0  0  0  0
   -2.3460    0.1450    0.0070 H   0  0  0  0  0  0  0  0  0  0  0  0
   -0.6070    1.2280    0.0010 N   0  0  0  0  0  0  0  0  0  0  0  0
    0.7130    1.1210   -0.0030 C   0  0  0  0  0  0  0  0  0  0  0  0
    1.2640    2.0480   -0.0060 H   0  0  0  0  0  0  0  0  0  0  0  0
  1  2  1  0  0  0  0
  1  3  1  0  0  0  0
  1  4  1  0  0  0  0
  1  5  1  0  0  0  0
  5  6  1  0  0  0  0
  5  7  1  0  0  0  0
  5  8  1  0  0  0  0
  8  9  1  0  0  0  0
  8 10  1  0  0  0  0
  8 11  1  0  0  0  0
 11 12  2  0  0  0  0
 11 13  1  0  0  0  0
 13 14  1  0  0  0  0
 13 21  2  0  0  0  0
 14 15  1  0  0  0  0
 14 16  2  0  0  0  0
 16 17  1  0  0  0  0
 16 18  1  0  0  0  0
 18 19  1  0  0  0  0
 18 20  2  0  0  0  0
 20 21  1  0  0  0  0
 21 22  1  0  0  0  0
M  END
>  <Catalog ID>
Z513733856

>  <a_acc>
2

>  <a_don>
0

>  <a_heavy>
11

>  <logP>
1.443

>  <logS>
-1.156

>  <TPSA>
29.959999

>  <Weight>
149.19299

$$$$
Z1201620809
  MOE2024           3D

 16 17  0  0  0  0  0  0  0  0999 V2000
   -2.6430    3.9850    0.0130 F   0  0  0  0  0  0  0  0  0  0  0  0
   -1.6930    3.0850    0.0080 C   0  0  0  0  0  0  0  0  0  0  0  0
   -0.3710    3.5360    0.0000 C   0  0  0  0  0  0  0  0  0  0  0  0
   -0.1490    4.5860   -0.0020 H   0  0  0  0  0  0  0  0  0  0  0  0
    0.6180    2.5840   -0.0060 C   0  0  0  0  0  0  0  0  0  0  0  0
    1.8740    2.9490   -0.0140 F   0  0  0  0  0  0  0  0  0  0  0  0
    0.3190    1.2200   -0.0040 C   0  0  0  0  0  0  0  0  0  0  0  0
    1.1280    0.1120   -0.0090 N   0  0  0  0  0  0  0  0  0  0  0  0
    2.1540    0.1350   -0.0150 H   0  0  0  0  0  0  0  0  0  0  0  0
    0.3260   -0.9940   -0.0040 C   0  0  0  0  0  0  0  0  0  0  0  0
    0.7310   -1.9910   -0.0060 H   0  0  0  0  0  0  0  0  0  0  0  0
   -0.9740   -0.6120    0.0040 C   0  0  0  0  0  0  0  0  0  0  0  0
   -1.8500   -1.2370    0.0090 H   0  0  0  0  0  0  0  0  0  0  0  0
   -1.0090    0.7990    0.0040 C   0  0  0  0  0  0  0  0  0  0  0  0
   -2.0360    1.7530    0.0100 C   0  0  0  0  0  0  0  0  0  0  0  0
   -3.0640    1.4400    0.0160 H   0  0  0  0  0  0  0  0  0  0  0  0
  1  2  1  0  0  0  0
  2  3  1  0  0  0  0
  2 15  2  0  0  0  0
  3  4  1  0  0  0  0
  3  5  2  0  0  0  0
  5  6  1  0  0  0  0
  5  7  1  0  0  0  0
  7  8  1  0  0  0  0
  7 14  2  0  0  0  0
  8  9  1  0  0  0  0
  8 10  1  0  0  0  0
 10 11  1  0  0  0  0
 10 12  2  0  0  0  0
 12 13  1  0  0  0  0
 12 14  1  0  0  0  0
 14 15  1  0  0  0  0
 15 16  1  0  0  0  0
M  END
>  <Catalog ID>
Z1201620809

>  <a_acc>
0

>  <a_don>
1

>  <a_heavy>
11

>  <logP>
2.6530001

>  <logS>
-2.26474

>  <TPSA>
15.79

>  <Weight>
153.131

$$$$
Z104476152
  MOE2024           3D

 22 23  0  0  0  0  0  0  0  0999 V2000
    1.3640   -5.0960    0.0050 C   0  0  0  0  0  0  0  0  0  0  0  0
    2.4300   -4.9580    0.0090 H   0  0  0  0  0  0  0  0  0  0  0  0
    1.0820   -5.6540   -0.8710 H   0  0  0  0  0  0  0  0  0  0  0  0
    1.0760   -5.6560    0.8780 H   0  0  0  0  0  0  0  0  0  0  0  0
    0.6600   -3.7880    0.0040 N   0  0  0  0  0  0  0  0  0  0  0  0
    1.5090   -2.5640    0.0000 C   0  0  0  0  0  0  0  0  0  0  0  0
    2.1350   -2.5830   -0.8740 H   0  0  0  0  0  0  0  0  0  0  0  0
    2.1400   -2.5810    0.8710 H   0  0  0  0  0  0  0  0  0  0  0  0
    0.7070   -1.2650    0.0000 C   0  0  0  0  0  0  0  0  0  0  0  0
    1.3640   -0.0440   -0.0010 C   0  0  0  0  0  0  0  0  0  0  0  0
    2.4390   -0.0050   -0.0020 H   0  0  0  0  0  0  0  0  0  0  0  0
    0.6430    1.1390   -0.0010 C   0  0  0  0  0  0  0  0  0  0  0  0
    1.1580    2.0840   -0.0020 H   0  0  0  0  0  0  0  0  0  0  0  0
   -0.7410    1.1050    0.0010 C   0  0  0  0  0  0  0  0  0  0  0  0
   -1.3010    2.0240    0.0010 H   0  0  0  0  0  0  0  0  0  0  0  0
   -1.4010   -0.1100    0.0020 C   0  0  0  0  0  0  0  0  0  0  0  0
   -2.4750   -0.1370    0.0030 H   0  0  0  0  0  0  0  0  0  0  0  0
   -0.6820   -1.2980    0.0020 C   0  0  0  0  0  0  0  0  0  0  0  0
   -1.3290   -2.5270    0.0030 N   0  0  0  0  0  0  0  0  0  0  0  0
   -2.3430   -2.5820    0.0050 H   0  0  0  0  0  0  0  0  0  0  0  0
   -0.7070   -3.7290    0.0050 C   0  0  0  0  0  0  0  0  0  0  0  0
   -1.3900   -4.7340    0.0070 O   0  0  0  0  0  0  0  0  0  0  0  0
  1  2  1  0  0  0  0
  1  3  1  0  0  0  0
  1  4  1  0  0  0  0
  1  5  1  0  0  0  0
  5  6  1  0  0  0  0
  5 21  1  0  0  0  0
  6  7  1  0  0  0  0
  6  8  1  0  0  0  0
  6  9  1  0  0  0  0
  9 10  1  0  0  0  0
  9 18  2  0  0  0  0
 10 11  1  0  0  0  0
 10 12  2  0  0  0  0
 12 13  1  0  0  0  0
 12 14  1  0  0  0  0
 14 15  1  0  0  0  0
 14 16  2  0  0  0  0
 16 17  1  0  0  0  0
 16 18  1  0  0  0  0
 18 19  1  0  0  0  0
 19 20  1  0  0  0  0
 19 21  1  0  0  0  0
 21 22  2  0  0  0  0
M  END
>  <Catalog ID>
Z104476152

>  <a_acc>
1

>  <a_don>
1

>  <a_heavy>
12

>  <logP>
0.85600001

>  <logS>
-1.4446

>  <TPSA>
32.34

>  <Weight>
162.192

$$$$
Z57114989
  MOE2024           3D

 22 23  0  0  0  0  0  0  0  0999 V2000
   -3.6880   -2.2850    0.0050 C   0  0  0  0  0  0  0  0  0  0  0  0
   -4.6060   -2.8460    0.0160 H   0  0  0  0  0  0  0  0  0  0  0  0
   -3.6810   -1.6780   -0.8820 H   0  0  0  0  0  0  0  0  0  0  0  0
   -3.6620   -1.6730    0.8870 H   0  0  0  0  0  0  0  0  0  0  0  0
   -2.5090   -3.2540   -0.0060 C   0  0  0  0  0  0  0  0  0  0  0  0
   -2.5820   -3.8880   -0.8730 H   0  0  0  0  0  0  0  0  0  0  0  0
   -2.5680   -3.8880    0.8630 H   0  0  0  0  0  0  0  0  0  0  0  0
   -1.1690   -2.6100   -0.0160 N   0  0  0  0  0  0  0  0  0  0  0  0
   -0.0430   -3.3890   -0.0130 C   0  0  0  0  0  0  0  0  0  0  0  0
   -0.0110   -4.6090   -0.0140 O   0  0  0  0  0  0  0  0  0  0  0  0
    1.0590   -2.6110   -0.0060 N   0  0  0  0  0  0  0  0  0  0  0  0
    2.0000   -2.9950   -0.0020 H   0  0  0  0  0  0  0  0  0  0  0  0
    0.6550   -1.2910   -0.0050 C   0  0  0  0  0  0  0  0  0  0  0  0
    1.4090   -0.1280    0.0030 C   0  0  0  0  0  0  0  0  0  0  0  0
    2.4820   -0.1780    0.0090 H   0  0  0  0  0  0  0  0  0  0  0  0
    0.7480    1.0870    0.0010 C   0  0  0  0  0  0  0  0  0  0  0  0
    1.3080    2.0060    0.0070 H   0  0  0  0  0  0  0  0  0  0  0  0
   -0.6430    1.1270   -0.0080 C   0  0  0  0  0  0  0  0  0  0  0  0
   -1.1450    2.0800   -0.0090 H   0  0  0  0  0  0  0  0  0  0  0  0
   -1.3870   -0.0420   -0.0140 C   0  0  0  0  0  0  0  0  0  0  0  0
   -2.4550    0.0210   -0.0220 H   0  0  0  0  0  0  0  0  0  0  0  0
   -0.7340   -1.2720   -0.0120 C   0  0  0  0  0  0  0  0  0  0  0  0
  1  2  1  0  0  0  0
  1  3  1  0  0  0  0
  1  4  1  0  0  0  0
  1  5  1  0  0  0  0
  5  6  1  0  0  0  0
  5  7  1  0  0  0  0
  5  8  1  0  0  0  0
  8  9  1  0  0  0  0
  8 22  1  0  0  0  0
  9 10  2  0  0  0  0
  9 11  1  0  0  0  0
 11 12  1  0  0  0  0
 11 13  1  0  0  0  0
 13 14  1  0  0  0  0
 13 22  2  0  0  0  0
 14 15  1  0  0  0  0
 14 16  2  0  0  0  0
 16 17  1  0  0  0  0
 16 18  1  0  0  0  0
 18 19  1  0  0  0  0
 18 20  2  0  0  0  0
 20 21  1  0  0  0  0
 20 22  1  0  0  0  0
M  END
>  <Catalog ID>
Z57114989

>  <a_acc>
1

>  <a_don>
1

>  <a_heavy>
12

>  <logP>
1.063

>  <logS>
-1.82777

>  <TPSA>
32.34

>  <Weight>
162.192

$$$$
Z57902253
  MOE2024           3D

 23 23  0  0  0  0  0  0  0  0999 V2000
    3.7230   -0.7260   -0.3750 C   0  0  0  0  0  0  0  0  0  0  0  0
    4.7560   -0.7220   -0.0760 H   0  0  0  0  0  0  0  0  0  0  0  0
    3.6260   -0.1750   -1.2930 H   0  0  0  0  0  0  0  0  0  0  0  0
    3.4160   -1.7420   -0.5490 H   0  0  0  0  0  0  0  0  0  0  0  0
    2.8570   -0.0920    0.7150 C   0  0  0  0  0  0  0  0  0  0  0  0
    3.1830    0.9180    0.8950 H   0  0  0  0  0  0  0  0  0  0  0  0
    2.9730   -0.6400    1.6340 H   0  0  0  0  0  0  0  0  0  0  0  0
    1.3940   -0.0930    0.3010 C   0  0  0  0  0  0  0  0  0  0  0  0
    0.5860   -1.1790    0.5900 C   0  0  0  0  0  0  0  0  0  0  0  0
    0.9910   -2.0300    1.1100 H   0  0  0  0  0  0  0  0  0  0  0  0
   -0.7450   -1.1790    0.2100 C   0  0  0  0  0  0  0  0  0  0  0  0
   -1.3620   -2.0310    0.4410 H   0  0  0  0  0  0  0  0  0  0  0  0
   -1.3020   -0.1010   -0.4660 C   0  0  0  0  0  0  0  0  0  0  0  0
   -0.4780    0.9820   -0.7500 C   0  0  0  0  0  0  0  0  0  0  0  0
   -0.8820    1.8330   -1.2730 H   0  0  0  0  0  0  0  0  0  0  0  0
    0.8540    0.9890   -0.3730 C   0  0  0  0  0  0  0  0  0  0  0  0
    1.4690    1.8400   -0.6090 H   0  0  0  0  0  0  0  0  0  0  0  0
   -3.0480   -0.1090   -0.9560 S   0  0  0  0  0  0  0  0  0  0  0  0
   -3.8810   -0.1820    0.4720 N   0  0  0  0  0  0  0  0  0  0  0  0
   -4.6480   -0.8150    0.2590 H   0  0  0  0  0  0  0  0  0  0  0  0
   -4.2910    0.7450    0.5490 H   0  0  0  0  0  0  0  0  0  0  0  0
   -3.4690    1.1630   -1.4900 O   0  0  0  0  0  0  0  0  0  0  0  0
   -3.4210   -1.3370   -1.6120 O   0  0  0  0  0  0  0  0  0  0  0  0
  1  2  1  0  0  0  0
  1  3  1  0  0  0  0
  1  4  1  0  0  0  0
  1  5  1  0  0  0  0
  5  6  1  0  0  0  0
  5  7  1  0  0  0  0
  5  8  1  0  0  0  0
  8  9  1  0  0  0  0
  8 16  2  0  0  0  0
  9 10  1  0  0  0  0
  9 11  2  0  0  0  0
 11 12  1  0  0  0  0
 11 13  1  0  0  0  0
 13 14  2  0  0  0  0
 13 18  1  0  0  0  0
 14 15  1  0  0  0  0
 14 16  1  0  0  0  0
 16 17  1  0  0  0  0
 18 19  1  0  0  0  0
 18 22  2  0  0  0  0
 18 23  2  0  0  0  0
 19 20  1  0  0  0  0
 19 21  1  0  0  0  0
M  END
>  <Catalog ID>
Z57902253

>  <a_acc>
2

>  <a_don>
1

>  <a_heavy>
12

>  <logP>
1.107

>  <logS>
-2.60063

>  <TPSA>
60.16

>  <Weight>
185.24699

$$$$
Z56754502
  MOE2024           3D

 19 20  0  0  0  0  0  0  0  0999 V2000
    2.6970    0.0160   -0.0750 N   0  0  0  0  0  0  0  0  0  0  0  0
    3.1730    0.8470    0.2880 H   0  0  0  0  0  0  0  0  0  0  0  0
    3.1310   -0.8450    0.2690 H   0  0  0  0  0  0  0  0  0  0  0  0
    1.3140    0.0470   -0.0510 C   0  0  0  0  0  0  0  0  0  0  0  0
    0.5910   -1.1420   -0.0320 C   0  0  0  0  0  0  0  0  0  0  0  0
    1.1160   -2.0800   -0.0440 H   0  0  0  0  0  0  0  0  0  0  0  0
   -0.7890   -1.1210   -0.0010 C   0  0  0  0  0  0  0  0  0  0  0  0
   -1.3500   -2.0380    0.0150 H   0  0  0  0  0  0  0  0  0  0  0  0
   -1.4620    0.0910    0.0070 C   0  0  0  0  0  0  0  0  0  0  0  0
   -2.8180    0.0880    0.0370 O   0  0  0  0  0  0  0  0  0  0  0  0
   -3.5420    1.2110    0.0420 C   0  0  0  0  0  0  0  0  0  0  0  0
   -4.7520    1.1230    0.0690 O   0  0  0  0  0  0  0  0  0  0  0  0
   -2.8510    2.4620    0.0170 C   0  0  0  0  0  0  0  0  0  0  0  0
   -3.4710    3.3370    0.0220 H   0  0  0  0  0  0  0  0  0  0  0  0
   -1.5020    2.5190   -0.0130 C   0  0  0  0  0  0  0  0  0  0  0  0
   -0.9600    3.4490   -0.0330 H   0  0  0  0  0  0  0  0  0  0  0  0
   -0.7540    1.3010   -0.0180 C   0  0  0  0  0  0  0  0  0  0  0  0
    0.6370    1.2540   -0.0490 C   0  0  0  0  0  0  0  0  0  0  0  0
    1.1960    2.1710   -0.0750 H   0  0  0  0  0  0  0  0  0  0  0  0
  1  2  1  0  0  0  0
  1  3  1  0  0  0  0
  1  4  1  0  0  0  0
  4  5  1  0  0  0  0
  4 18  2  0  0  0  0
  5  6  1  0  0  0  0
  5  7  2  0  0  0  0
  7  8  1  0  0  0  0
  7  9  1  0  0  0  0
  9 10  1  0  0  0  0
  9 17  2  0  0  0  0
 10 11  1  0  0  0  0
 11 12  2  0  0  0  0
 11 13  1  0  0  0  0
 13 14  1  0  0  0  0
 13 15  2  0  0  0  0
 15 16  1  0  0  0  0
 15 17  1  0  0  0  0
 17 18  1  0  0  0  0
 18 19  1  0  0  0  0
M  END
>  <Catalog ID>
Z56754502

>  <a_acc>
1

>  <a_don>
1

>  <a_heavy>
12

>  <logP>
1.54

>  <logS>
-2.4918799

>  <TPSA>
52.32

>  <Weight>
161.16

$$$$
Z415653738
  MOE2024           3D

 20 21  0  0  0  0  0  0  0  0999 V2000
   -4.4340    2.1130   -0.6240 N   0  0  0  0  0  0  0  0  0  0  0  0
   -5.3920    1.7620   -0.6470 H   0  0  0  0  0  0  0  0  0  0  0  0
   -4.2140    2.8940   -1.2390 H   0  0  0  0  0  0  0  0  0  0  0  0
   -3.4940    1.3660    0.0010 C   0  0  0  0  0  0  0  0  0  0  0  0
   -3.8960    0.3530    0.5310 O   0  0  0  0  0  0  0  0  0  0  0  0
   -2.1020    1.7680    0.0220 C   0  0  0  0  0  0  0  0  0  0  0  0
   -1.7290    3.1060    0.0600 C   0  0  0  0  0  0  0  0  0  0  0  0
   -2.4880    3.8670    0.0990 H   0  0  0  0  0  0  0  0  0  0  0  0
   -0.3910    3.5090    0.0610 C   0  0  0  0  0  0  0  0  0  0  0  0
   -0.1550    4.5590    0.0910 H   0  0  0  0  0  0  0  0  0  0  0  0
    0.6180    2.5760    0.0270 C   0  0  0  0  0  0  0  0  0  0  0  0
    1.6510    2.8740    0.0270 H   0  0  0  0  0  0  0  0  0  0  0  0
    0.2750    1.2250   -0.0050 C   0  0  0  0  0  0  0  0  0  0  0  0
    1.0740    0.1100   -0.0420 N   0  0  0  0  0  0  0  0  0  0  0  0
    2.0990    0.1140   -0.0470 H   0  0  0  0  0  0  0  0  0  0  0  0
    0.2670   -0.9890   -0.0660 C   0  0  0  0  0  0  0  0  0  0  0  0
    0.6610   -1.9890   -0.0950 H   0  0  0  0  0  0  0  0  0  0  0  0
   -1.0290   -0.5950   -0.0420 C   0  0  0  0  0  0  0  0  0  0  0  0
   -1.9100   -1.2150   -0.0470 H   0  0  0  0  0  0  0  0  0  0  0  0
   -1.0580    0.8170   -0.0040 C   0  0  0  0  0  0  0  0  0  0  0  0
  1  2  1  0  0  0  0
  1  3  1  0  0  0  0
  1  4  1  0  0  0  0
  4  5  2  0  0  0  0
  4  6  1  0  0  0  0
  6  7  1  0  0  0  0
  6 20  2  0  0  0  0
  7  8  1  0  0  0  0
  7  9  2  0  0  0  0
  9 10  1  0  0  0  0
  9 11  1  0  0  0  0
 11 12  1  0  0  0  0
 11 13  2  0  0  0  0
 13 14  1  0  0  0  0
 13 20  1  0  0  0  0
 14 15  1  0  0  0  0
 14 16  1  0  0  0  0
 16 17  1  0  0  0  0
 16 18  2  0  0  0  0
 18 19  1  0  0  0  0
 18 20  1  0  0  0  0
M  END
>  <Catalog ID>
Z415653738

>  <a_acc>
1

>  <a_don>
2

>  <a_heavy>
12

>  <logP>
1.216

>  <logS>
-1.9269

>  <TPSA>
58.880001

>  <Weight>
160.17599

$$$$
Z57842700
  MOE2024           3D

 22 23  0  0  0  0  0  0  0  0999 V2000
   -0.1390   -5.3260   -1.6420 C   0  0  0  0  0  0  0  0  0  0  0  0
   -0.3890   -5.9090   -2.5130 H   0  0  0  0  0  0  0  0  0  0  0  0
    0.4750   -4.1230   -1.5990 C   0  0  0  0  0  0  0  0  0  0  0  0
    0.8330   -3.5030   -2.4010 H   0  0  0  0  0  0  0  0  0  0  0  0
    0.5720   -3.7840   -0.3000 N   0  0  0  0  0  0  0  0  0  0  0  0
    0.0050   -4.8170    0.3640 C   0  0  0  0  0  0  0  0  0  0  0  0
   -0.0670   -4.8370    1.4370 H   0  0  0  0  0  0  0  0  0  0  0  0
   -0.4330   -5.7620   -0.4030 N   0  0  0  0  0  0  0  0  0  0  0  0
    1.1820   -2.5710    0.2830 C   0  0  0  0  0  0  0  0  0  0  0  0
    2.2460   -2.6290    0.1440 H   0  0  0  0  0  0  0  0  0  0  0  0
    0.9780   -2.5500    1.3380 H   0  0  0  0  0  0  0  0  0  0  0  0
    0.6320   -1.3060   -0.3630 C   0  0  0  0  0  0  0  0  0  0  0  0
    1.4810   -0.4260   -1.0190 C   0  0  0  0  0  0  0  0  0  0  0  0
    2.5360   -0.6290   -1.0830 H   0  0  0  0  0  0  0  0  0  0  0  0
    0.9810    0.7260   -1.6010 C   0  0  0  0  0  0  0  0  0  0  0  0
    1.6440    1.4050   -2.1090 H   0  0  0  0  0  0  0  0  0  0  0  0
   -0.3720    1.0060   -1.5320 C   0  0  0  0  0  0  0  0  0  0  0  0
   -0.7610    1.9020   -1.9850 H   0  0  0  0  0  0  0  0  0  0  0  0
   -1.2250    0.1330   -0.8810 C   0  0  0  0  0  0  0  0  0  0  0  0
   -2.2780    0.3490   -0.8280 H   0  0  0  0  0  0  0  0  0  0  0  0
   -0.7240   -1.0180   -0.2980 C   0  0  0  0  0  0  0  0  0  0  0  0
   -1.4000   -1.6920    0.2010 H   0  0  0  0  0  0  0  0  0  0  0  0
  1  2  1  0  0  0  0
  1  3  2  0  0  0  0
  1  8  1  0  0  0  0
  3  4  1  0  0  0  0
  3  5  1  0  0  0  0
  5  6  1  0  0  0  0
  5  9  1  0  0  0  0
  6  7  1  0  0  0  0
  6  8  2  0  0  0  0
  9 10  1  0  0  0  0
  9 11  1  0  0  0  0
  9 12  1  0  0  0  0
 12 13  1  0  0  0  0
 12 21  2  0  0  0  0
 13 14  1  0  0  0  0
 13 15  2  0  0  0  0
 15 16  1  0  0  0  0
 15 17  1  0  0  0  0
 17 18  1  0  0  0  0
 17 19  2  0  0  0  0
 19 20  1  0  0  0  0
 19 21  1  0  0  0  0
 21 22  1  0  0  0  0
M  END
>  <Catalog ID>
Z57842700

>  <a_acc>
1

>  <a_don>
0

>  <a_heavy>
12

>  <logP>
1.8200001

>  <logS>
-1.65101

>  <TPSA>
17.82

>  <Weight>
158.20399

$$$$
Z57915361
  MOE2024           3D

 22 22  0  0  0  0  0  0  0  0999 V2000
    3.5600    0.3720    0.3590 C   0  0  0  0  0  0  0  0  0  0  0  0
    4.4780   -0.1540    0.5420 H   0  0  0  0  0  0  0  0  0  0  0  0
    3.4690    1.1900    1.0520 H   0  0  0  0  0  0  0  0  0  0  0  0
    3.5390    0.7240   -0.6580 H   0  0  0  0  0  0  0  0  0  0  0  0
    2.4890   -0.5260    0.5590 O   0  0  0  0  0  0  0  0  0  0  0  0
    1.2000   -0.2930    0.1880 C   0  0  0  0  0  0  0  0  0  0  0  0
    0.4490   -1.4550    0.1180 C   0  0  0  0  0  0  0  0  0  0  0  0
    0.9230   -2.3890    0.3570 H   0  0  0  0  0  0  0  0  0  0  0  0
   -0.8770   -1.4330   -0.2550 C   0  0  0  0  0  0  0  0  0  0  0  0
   -1.4440   -2.3440   -0.3110 H   0  0  0  0  0  0  0  0  0  0  0  0
   -1.4630   -0.2230   -0.5550 C   0  0  0  0  0  0  0  0  0  0  0  0
   -2.4960   -0.1860   -0.8490 H   0  0  0  0  0  0  0  0  0  0  0  0
   -0.7500    0.9630   -0.4830 C   0  0  0  0  0  0  0  0  0  0  0  0
   -1.5110    2.0480   -0.7980 O   0  0  0  0  0  0  0  0  0  0  0  0
   -1.1870    3.3820   -0.4680 C   0  0  0  0  0  0  0  0  0  0  0  0
   -2.0540    3.9910   -0.6430 H   0  0  0  0  0  0  0  0  0  0  0  0
   -0.3810    3.7150   -1.0980 H   0  0  0  0  0  0  0  0  0  0  0  0
   -0.9100    3.4320    0.5700 H   0  0  0  0  0  0  0  0  0  0  0  0
    0.6130    0.9570   -0.1110 C   0  0  0  0  0  0  0  0  0  0  0  0
    1.3750    2.1780   -0.0410 C   0  0  0  0  0  0  0  0  0  0  0  0
    1.4920    2.8000    1.0320 O   0  5  0  0  0  0  0  0  0  0  0  0
    1.9370    2.6430   -1.0510 O   0  0  0  0  0  0  0  0  0  0  0  0
  1  2  1  0  0  0  0
  1  3  1  0  0  0  0
  1  4  1  0  0  0  0
  1  5  1  0  0  0  0
  5  6  1  0  0  0  0
  6  7  1  0  0  0  0
  6 19  2  0  0  0  0
  7  8  1  0  0  0  0
  7  9  2  0  0  0  0
  9 10  1  0  0  0  0
  9 11  1  0  0  0  0
 11 12  1  0  0  0  0
 11 13  2  0  0  0  0
 13 14  1  0  0  0  0
 13 19  1  0  0  0  0
 14 15  1  0  0  0  0
 15 16  1  0  0  0  0
 15 17  1  0  0  0  0
 15 18  1  0  0  0  0
 19 20  1  0  0  0  0
 20 21  1  0  0  0  0
 20 22  2  0  0  0  0
M  CHG  1  21  -1
M  END
>  <Catalog ID>
Z57915361

>  <a_acc>
2

>  <a_don>
0

>  <a_heavy>
13

>  <logP>
1.612

>  <logS>
-1.71549

>  <TPSA>
58.59

>  <Weight>
181.16699

$$$$
Z235352033
  MOE2024           3D

 21 22  0  0  0  0  0  0  0  0999 V2000
    2.7650   -0.0080   -0.0110 C   0  0  0  0  0  0  0  0  0  0  0  0
    3.1130   -1.0250   -0.0090 H   0  0  0  0  0  0  0  0  0  0  0  0
    3.1510    0.4880    0.8620 H   0  0  0  0  0  0  0  0  0  0  0  0
    3.1440    0.4840   -0.8880 H   0  0  0  0  0  0  0  0  0  0  0  0
    1.2490    0.0510   -0.0050 C   0  0  0  0  0  0  0  0  0  0  0  0
    0.4990   -1.1350    0.0020 C   0  0  0  0  0  0  0  0  0  0  0  0
    1.0060   -2.0830    0.0040 H   0  0  0  0  0  0  0  0  0  0  0  0
   -0.8770   -1.1000    0.0070 C   0  0  0  0  0  0  0  0  0  0  0  0
   -1.4610   -2.0020    0.0130 H   0  0  0  0  0  0  0  0  0  0  0  0
   -1.5210    0.1390    0.0050 C   0  0  0  0  0  0  0  0  0  0  0  0
   -2.8530    0.4660    0.0080 N   0  0  0  0  0  0  0  0  0  0  0  0
   -3.6720   -0.1550    0.0130 H   0  0  0  0  0  0  0  0  0  0  0  0
   -2.9860    1.8260    0.0030 C   0  0  0  0  0  0  0  0  0  0  0  0
   -1.7340    2.3690   -0.0030 C   0  0  0  0  0  0  0  0  0  0  0  0
   -1.5000    3.4180   -0.0080 H   0  0  0  0  0  0  0  0  0  0  0  0
   -0.7910    1.3220   -0.0030 C   0  0  0  0  0  0  0  0  0  0  0  0
    0.6070    1.2690   -0.0080 C   0  0  0  0  0  0  0  0  0  0  0  0
    1.1520    2.1940   -0.0130 H   0  0  0  0  0  0  0  0  0  0  0  0
   -4.3030    2.4050    0.0060 C   0  0  0  0  0  0  0  0  0  0  0  0
   -5.2870    1.6430    0.0120 O   0  5  0  0  0  0  0  0  0  0  0  0
   -4.4670    3.6350    0.0020 O   0  0  0  0  0  0  0  0  0  0  0  0
  1  2  1  0  0  0  0
  1  3  1  0  0  0  0
  1  4  1  0  0  0  0
  1  5  1  0  0  0  0
  5  6  1  0  0  0  0
  5 17  2  0  0  0  0
  6  7  1  0  0  0  0
  6  8  2  0  0  0  0
  8  9  1  0  0  0  0
  8 10  1  0  0  0  0
 10 11  1  0  0  0  0
 10 16  2  0  0  0  0
 11 12  1  0  0  0  0
 11 13  1  0  0  0  0
 13 14  2  0  0  0  0
 13 19  1  0  0  0  0
 14 15  1  0  0  0  0
 14 16  1  0  0  0  0
 16 17  1  0  0  0  0
 17 18  1  0  0  0  0
 19 20  1  0  0  0  0
 19 21  2  0  0  0  0
M  CHG  1  20  -1
M  END
>  <Catalog ID>
Z235352033

>  <a_acc>
0

>  <a_don>
1

>  <a_heavy>
13

>  <logP>
2.4059999

>  <logS>
-2.5314701

>  <TPSA>
55.919998

>  <Weight>
174.179

$$$$
Z235348085
  MOE2024           3D

 18 19  0  0  0  0  0  0  0  0999 V2000
    0.9240   -5.6410    0.0040 O   0  5  0  0  0  0  0  0  0  0  0  0
   -0.0560   -4.8820   -0.0230 C   0  0  0  0  0  0  0  0  0  0  0  0
   -1.2100   -5.3470   -0.0590 O   0  0  0  0  0  0  0  0  0  0  0  0
    0.1050   -3.4520   -0.0120 C   0  0  0  0  0  0  0  0  0  0  0  0
    1.2050   -2.6470    0.0250 C   0  0  0  0  0  0  0  0  0  0  0  0
    2.2290   -2.9770    0.0540 H   0  0  0  0  0  0  0  0  0  0  0  0
    0.7770   -1.3060    0.0190 C   0  0  0  0  0  0  0  0  0  0  0  0
    1.4400   -0.0740    0.0470 C   0  0  0  0  0  0  0  0  0  0  0  0
    2.5120   -0.0390    0.0790 H   0  0  0  0  0  0  0  0  0  0  0  0
    0.6760    1.0660    0.0310 C   0  0  0  0  0  0  0  0  0  0  0  0
    1.2710    2.2320    0.0570 F   0  0  0  0  0  0  0  0  0  0  0  0
   -0.7220    1.0490   -0.0100 C   0  0  0  0  0  0  0  0  0  0  0  0
   -1.2600    1.9790   -0.0200 H   0  0  0  0  0  0  0  0  0  0  0  0
   -1.3760   -0.1620   -0.0380 C   0  0  0  0  0  0  0  0  0  0  0  0
   -2.4490   -0.2220   -0.0700 H   0  0  0  0  0  0  0  0  0  0  0  0
   -0.6160   -1.3380   -0.0220 C   0  0  0  0  0  0  0  0  0  0  0  0
   -1.0030   -2.6540   -0.0410 N   0  0  0  0  0  0  0  0  0  0  0  0
   -1.9500   -3.0520   -0.0710 H   0  0  0  0  0  0  0  0  0  0  0  0
  1  2  1  0  0  0  0
  2  3  2  0  0  0  0
  2  4  1  0  0  0  0
  4  5  2  0  0  0  0
  4 17  1  0  0  0  0
  5  6  1  0  0  0  0
  5  7  1  0  0  0  0
  7  8  1  0  0  0  0
  7 16  2  0  0  0  0
  8  9  1  0  0  0  0
  8 10  2  0  0  0  0
 10 11  1  0  0  0  0
 10 12  1  0  0  0  0
 12 13  1  0  0  0  0
 12 14  2  0  0  0  0
 14 15  1  0  0  0  0
 14 16  1  0  0  0  0
 16 17  1  0  0  0  0
 17 18  1  0  0  0  0
M  CHG  1   1  -1
M  END
>  <Catalog ID>
Z235348085

>  <a_acc>
0

>  <a_don>
1

>  <a_heavy>
13

>  <logP>
2.2609999

>  <logS>
-2.35253

>  <TPSA>
55.919998

>  <Weight>
178.142

$$$$
Z119989536
  MOE2024           3D

 18 19  0  0  0  0  0  0  0  0999 V2000
    0.9300   -5.6780    0.0010 O   0  5  0  0  0  0  0  0  0  0  0  0
   -0.0580   -4.9290    0.0030 C   0  0  0  0  0  0  0  0  0  0  0  0
   -1.2070   -5.4060    0.0060 O   0  0  0  0  0  0  0  0  0  0  0  0
    0.0870   -3.4970    0.0030 C   0  0  0  0  0  0  0  0  0  0  0  0
    1.1760   -2.6730   -0.0010 C   0  0  0  0  0  0  0  0  0  0  0  0
    2.2070   -2.9820   -0.0040 H   0  0  0  0  0  0  0  0  0  0  0  0
    0.7260   -1.3380    0.0000 C   0  0  0  0  0  0  0  0  0  0  0  0
    1.3420   -0.0800   -0.0020 C   0  0  0  0  0  0  0  0  0  0  0  0
    3.0870    0.0200   -0.0070 Cl  0  0  0  0  0  0  0  0  0  0  0  0
    0.5930    1.0720    0.0010 C   0  0  0  0  0  0  0  0  0  0  0  0
    1.0790    2.0300   -0.0010 H   0  0  0  0  0  0  0  0  0  0  0  0
   -0.8070    0.9970    0.0050 C   0  0  0  0  0  0  0  0  0  0  0  0
   -1.3830    1.9060    0.0070 H   0  0  0  0  0  0  0  0  0  0  0  0
   -1.4370   -0.2280    0.0070 C   0  0  0  0  0  0  0  0  0  0  0  0
   -2.5100   -0.3030    0.0100 H   0  0  0  0  0  0  0  0  0  0  0  0
   -0.6660   -1.3940    0.0050 C   0  0  0  0  0  0  0  0  0  0  0  0
   -1.0330   -2.7150    0.0060 N   0  0  0  0  0  0  0  0  0  0  0  0
   -1.9740   -3.1290    0.0080 H   0  0  0  0  0  0  0  0  0  0  0  0
  1  2  1  0  0  0  0
  2  3  2  0  0  0  0
  2  4  1  0  0  0  0
  4  5  2  0  0  0  0
  4 17  1  0  0  0  0
  5  6  1  0  0  0  0
  5  7  1  0  0  0  0
  7  8  1  0  0  0  0
  7 16  2  0  0  0  0
  8  9  1  0  0  0  0
  8 10  2  0  0  0  0
 10 11  1  0  0  0  0
 10 12  1  0  0  0  0
 12 13  1  0  0  0  0
 12 14  2  0  0  0  0
 14 15  1  0  0  0  0
 14 16  1  0  0  0  0
 16 17  1  0  0  0  0
 17 18  1  0  0  0  0
M  CHG  1   1  -1
M  END
>  <Catalog ID>
Z119989536

>  <a_acc>
0

>  <a_don>
1

>  <a_heavy>
13

>  <logP>
2.661

>  <logS>
-2.7918401

>  <TPSA>
55.919998

>  <Weight>
194.597

$$$$
Z1198265898
  MOE2024           3D

 20 21  0  0  0  0  0  0  0  0999 V2000
   -0.7150   -6.0090    1.6850 O   0  5  0  0  0  0  0  0  0  0  0  0
   -1.0670   -5.7990    0.5180 C   0  0  0  0  0  0  0  0  0  0  0  0
   -2.1580   -6.1820    0.0790 O   0  0  0  0  0  0  0  0  0  0  0  0
   -0.0900   -5.1300   -0.4270 C   0  0  0  0  0  0  0  0  0  0  0  0
   -0.3480   -5.4110   -1.4300 H   0  0  0  0  0  0  0  0  0  0  0  0
    0.8800   -5.5280   -0.2070 H   0  0  0  0  0  0  0  0  0  0  0  0
   -0.0440   -3.6110   -0.3160 C   0  0  0  0  0  0  0  0  0  0  0  0
    0.8570   -2.7810    0.2360 C   0  0  0  0  0  0  0  0  0  0  0  0
    1.7530   -3.0960    0.7370 H   0  0  0  0  0  0  0  0  0  0  0  0
    0.5410   -1.3830    0.1220 C   0  0  0  0  0  0  0  0  0  0  0  0
    1.2530   -0.2760    0.5750 C   0  0  0  0  0  0  0  0  0  0  0  0
    2.1810   -0.4250    1.0970 H   0  0  0  0  0  0  0  0  0  0  0  0
    0.7610    1.0000    0.3530 C   0  0  0  0  0  0  0  0  0  0  0  0
    1.3140    1.8540    0.7040 H   0  0  0  0  0  0  0  0  0  0  0  0
   -0.4430    1.1920   -0.3200 C   0  0  0  0  0  0  0  0  0  0  0  0
   -0.8110    2.1900   -0.4830 H   0  0  0  0  0  0  0  0  0  0  0  0
   -1.1670    0.1050   -0.7770 C   0  0  0  0  0  0  0  0  0  0  0  0
   -2.1000    0.2220   -1.2970 H   0  0  0  0  0  0  0  0  0  0  0  0
   -0.6540   -1.1580   -0.5450 C   0  0  0  0  0  0  0  0  0  0  0  0
   -1.3790   -2.6980   -1.0280 S   0  0  0  0  0  0  0  0  0  0  0  0
  1  2  1  0  0  0  0
  2  3  2  0  0  0  0
  2  4  1  0  0  0  0
  4  5  1  0  0  0  0
  4  6  1  0  0  0  0
  4  7  1  0  0  0  0
  7  8  2  0  0  0  0
  7 20  1  0  0  0  0
  8  9  1  0  0  0  0
  8 10  1  0  0  0  0
 10 11  1  0  0  0  0
 10 19  2  0  0  0  0
 11 12  1  0  0  0  0
 11 13  2  0  0  0  0
 13 14  1  0  0  0  0
 13 15  1  0  0  0  0
 15 16  1  0  0  0  0
 15 17  2  0  0  0  0
 17 18  1  0  0  0  0
 17 19  1  0  0  0  0
 19 20  1  0  0  0  0
M  CHG  1   1  -1
M  END
>  <Catalog ID>
Z1198265898

>  <a_acc>
0

>  <a_don>
0

>  <a_heavy>
13

>  <logP>
2.793

>  <logS>
-3.32955

>  <TPSA>
40.130001

>  <Weight>
191.23

$$$$
Z57115077
  MOE2024           3D

 23 24  0  0  0  0  0  0  0  0999 V2000
   -0.0710   -7.6660    0.0000 O   0  5  0  0  0  0  0  0  0  0  0  0
   -1.2000   -7.1600    0.0150 C   0  0  0  0  0  0  0  0  0  0  0  0
   -2.2270   -7.8410    0.0390 O   0  0  0  0  0  0  0  0  0  0  0  0
   -1.3410   -5.6550    0.0040 C   0  0  0  0  0  0  0  0  0  0  0  0
   -1.9060   -5.3690    0.8690 H   0  0  0  0  0  0  0  0  0  0  0  0
   -1.8960   -5.3800   -0.8700 H   0  0  0  0  0  0  0  0  0  0  0  0
    0.0200   -4.9420    0.0080 C   0  0  0  0  0  0  0  0  0  0  0  0
    0.5730   -5.2640   -0.8570 H   0  0  0  0  0  0  0  0  0  0  0  0
    0.5660   -5.2590    0.8790 H   0  0  0  0  0  0  0  0  0  0  0  0
   -0.0530   -3.4200    0.0040 C   0  0  0  0  0  0  0  0  0  0  0  0
    1.0910   -2.6920    0.0030 N   0  0  0  0  0  0  0  0  0  0  0  0
    2.0440   -3.0620    0.0050 H   0  0  0  0  0  0  0  0  0  0  0  0
    0.7160   -1.3890    0.0000 C   0  0  0  0  0  0  0  0  0  0  0  0
    1.4220   -0.1840   -0.0010 C   0  0  0  0  0  0  0  0  0  0  0  0
    2.4980   -0.1850    0.0000 H   0  0  0  0  0  0  0  0  0  0  0  0
    0.7080    0.9940   -0.0030 C   0  0  0  0  0  0  0  0  0  0  0  0
    1.2210    1.9400   -0.0040 H   0  0  0  0  0  0  0  0  0  0  0  0
   -0.6930    0.9800   -0.0050 C   0  0  0  0  0  0  0  0  0  0  0  0
   -1.2290    1.9130   -0.0060 H   0  0  0  0  0  0  0  0  0  0  0  0
   -1.3800   -0.2160   -0.0030 C   0  0  0  0  0  0  0  0  0  0  0  0
   -2.4520   -0.2620   -0.0040 H   0  0  0  0  0  0  0  0  0  0  0  0
   -0.6660   -1.4130   -0.0010 C   0  0  0  0  0  0  0  0  0  0  0  0
   -1.1210   -2.6960    0.0010 N   0  0  0  0  0  0  0  0  0  0  0  0
  1  2  1  0  0  0  0
  2  3  2  0  0  0  0
  2  4  1  0  0  0  0
  4  5  1  0  0  0  0
  4  6  1  0  0  0  0
  4  7  1  0  0  0  0
  7  8  1  0  0  0  0
  7  9  1  0  0  0  0
  7 10  1  0  0  0  0
 10 11  1  0  0  0  0
 10 23  2  0  0  0  0
 11 12  1  0  0  0  0
 11 13  1  0  0  0  0
 13 14  1  0  0  0  0
 13 22  2  0  0  0  0
 14 15  1  0  0  0  0
 14 16  2  0  0  0  0
 16 17  1  0  0  0  0
 16 18  1  0  0  0  0
 18 19  1  0  0  0  0
 18 20  2  0  0  0  0
 20 21  1  0  0  0  0
 20 22  1  0  0  0  0
 22 23  1  0  0  0  0
M  CHG  1   1  -1
M  END
>  <Catalog ID>
Z57115077

>  <a_acc>
2

>  <a_don>
2

>  <a_heavy>
14

>  <logP>
1.296

>  <logS>
-1.80964

>  <TPSA>
68.809998

>  <Weight>
189.194

$$$$
Z56900768
  MOE2024           3D

 24 25  0  0  0  0  0  0  0  0999 V2000
   -5.6050   -2.5470    0.0120 O   0  5  0  0  0  0  0  0  0  0  0  0
   -5.0860   -3.6710    0.0100 C   0  0  0  0  0  0  0  0  0  0  0  0
   -5.7750   -4.7000    0.0110 O   0  0  0  0  0  0  0  0  0  0  0  0
   -3.5710   -3.8630    0.0060 C   0  0  0  0  0  0  0  0  0  0  0  0
   -3.3170   -4.4230   -0.8720 H   0  0  0  0  0  0  0  0  0  0  0  0
   -3.3120   -4.4220    0.8830 H   0  0  0  0  0  0  0  0  0  0  0  0
   -2.8020   -2.6590    0.0030 O   0  0  0  0  0  0  0  0  0  0  0  0
   -1.4440   -2.6630    0.0010 C   0  0  0  0  0  0  0  0  0  0  0  0
   -0.7050   -3.8240    0.0000 C   0  0  0  0  0  0  0  0  0  0  0  0
   -1.1730   -4.7900    0.0000 H   0  0  0  0  0  0  0  0  0  0  0  0
    0.6910   -3.7750   -0.0010 C   0  0  0  0  0  0  0  0  0  0  0  0
    1.2460   -4.6960   -0.0020 H   0  0  0  0  0  0  0  0  0  0  0  0
    1.3330   -2.5670   -0.0020 C   0  0  0  0  0  0  0  0  0  0  0  0
    2.4070   -2.5250   -0.0040 H   0  0  0  0  0  0  0  0  0  0  0  0
    0.6140   -1.3560   -0.0010 C   0  0  0  0  0  0  0  0  0  0  0  0
    1.2610   -0.1030   -0.0020 C   0  0  0  0  0  0  0  0  0  0  0  0
    2.3360   -0.0830   -0.0020 H   0  0  0  0  0  0  0  0  0  0  0  0
    0.5510    1.0660    0.0000 C   0  0  0  0  0  0  0  0  0  0  0  0
    1.0510    2.0190   -0.0010 H   0  0  0  0  0  0  0  0  0  0  0  0
   -0.8470    1.0290    0.0010 C   0  0  0  0  0  0  0  0  0  0  0  0
   -1.4000    1.9520    0.0010 H   0  0  0  0  0  0  0  0  0  0  0  0
   -1.5000   -0.1730    0.0010 C   0  0  0  0  0  0  0  0  0  0  0  0
   -2.5770   -0.2050    0.0020 H   0  0  0  0  0  0  0  0  0  0  0  0
   -0.7990   -1.3990    0.0000 C   0  0  0  0  0  0  0  0  0  0  0  0
  1  2  1  0  0  0  0
  2  3  2  0  0  0  0
  2  4  1  0  0  0  0
  4  5  1  0  0  0  0
  4  6  1  0  0  0  0
  4  7  1  0  0  0  0
  7  8  1  0  0  0  0
  8  9  1  0  0  0  0
  8 24  2  0  0  0  0
  9 10  1  0  0  0  0
  9 11  2  0  0  0  0
 11 12  1  0  0  0  0
 11 13  1  0  0  0  0
 13 14  1  0  0  0  0
 13 15  2  0  0  0  0
 15 16  1  0  0  0  0
 15 24  1  0  0  0  0
 16 17  1  0  0  0  0
 16 18  2  0  0  0  0
 18 19  1  0  0  0  0
 18 20  1  0  0  0  0
 20 21  1  0  0  0  0
 20 22  2  0  0  0  0
 22 23  1  0  0  0  0
 22 24  1  0  0  0  0
M  CHG  1   1  -1
M  END
>  <Catalog ID>
Z56900768

>  <a_acc>
1

>  <a_don>
0

>  <a_heavy>
15

>  <logP>
2.7079999

>  <logS>
-3.5694301

>  <TPSA>
49.360001

>  <Weight>
201.20099

$$$$
Z385472506
  MOE2024           3D

 25 26  0  0  0  0  0  0  0  0999 V2000
    3.4620   -0.9650    0.0890 C   0  0  0  0  0  0  0  0  0  0  0  0
    4.4930   -0.6720    0.1790 H   0  0  0  0  0  0  0  0  0  0  0  0
    3.2940   -1.4220   -0.8700 H   0  0  0  0  0  0  0  0  0  0  0  0
    3.2030   -1.6370    0.8890 H   0  0  0  0  0  0  0  0  0  0  0  0
    2.6670    0.1950    0.1900 O   0  0  0  0  0  0  0  0  0  0  0  0
    1.3110    0.1300    0.0610 C   0  0  0  0  0  0  0  0  0  0  0  0
    0.6100   -1.0850   -0.0790 C   0  0  0  0  0  0  0  0  0  0  0  0
    1.1330   -2.0200   -0.0860 H   0  0  0  0  0  0  0  0  0  0  0  0
   -0.7600   -1.0920   -0.2080 C   0  0  0  0  0  0  0  0  0  0  0  0
   -1.3040   -2.0120   -0.3150 H   0  0  0  0  0  0  0  0  0  0  0  0
   -1.4480    0.1240   -0.1980 C   0  0  0  0  0  0  0  0  0  0  0  0
   -2.7890    0.3980   -0.3070 N   0  0  0  0  0  0  0  0  0  0  0  0
   -3.5360   -0.2920   -0.4180 H   0  0  0  0  0  0  0  0  0  0  0  0
   -2.9540    1.7490   -0.2390 C   0  0  0  0  0  0  0  0  0  0  0  0
   -3.9190    2.2240   -0.2980 H   0  0  0  0  0  0  0  0  0  0  0  0
   -1.7500    2.3490   -0.0910 C   0  0  0  0  0  0  0  0  0  0  0  0
   -1.4600    3.8450    0.0280 C   0  0  0  0  0  0  0  0  0  0  0  0
   -0.7490    4.1230   -0.7240 H   0  0  0  0  0  0  0  0  0  0  0  0
   -1.0260    4.0410    0.9890 H   0  0  0  0  0  0  0  0  0  0  0  0
   -2.6630    4.7620   -0.1220 C   0  0  0  0  0  0  0  0  0  0  0  0
   -3.3650    5.0070    0.8670 O   0  5  0  0  0  0  0  0  0  0  0  0
   -2.8820    5.2880   -1.2210 O   0  0  0  0  0  0  0  0  0  0  0  0
   -0.7690    1.3310   -0.0600 C   0  0  0  0  0  0  0  0  0  0  0  0
    0.6240    1.3230    0.0710 C   0  0  0  0  0  0  0  0  0  0  0  0
    1.1430    2.2560    0.1770 H   0  0  0  0  0  0  0  0  0  0  0  0
  1  2  1  0  0  0  0
  1  3  1  0  0  0  0
  1  4  1  0  0  0  0
  1  5  1  0  0  0  0
  5  6  1  0  0  0  0
  6  7  1  0  0  0  0
  6 24  2  0  0  0  0
  7  8  1  0  0  0  0
  7  9  2  0  0  0  0
  9 10  1  0  0  0  0
  9 11  1  0  0  0  0
 11 12  1  0  0  0  0
 11 23  2  0  0  0  0
 12 13  1  0  0  0  0
 12 14  1  0  0  0  0
 14 15  1  0  0  0  0
 14 16  2  0  0  0  0
 16 17  1  0  0  0  0
 16 23  1  0  0  0  0
 17 18  1  0  0  0  0
 17 19  1  0  0  0  0
 17 20  1  0  0  0  0
 20 21  1  0  0  0  0
 20 22  2  0  0  0  0
 23 24  1  0  0  0  0
 24 25  1  0  0  0  0
M  CHG  1  21  -1
M  END
>  <Catalog ID>
Z385472506

>  <a_acc>
1

>  <a_don>
1

>  <a_heavy>
15

>  <logP>
2.151

>  <logS>
-2.01648

>  <TPSA>
65.150002

>  <Weight>
204.205

$$$$
Z104477292
  MOE2024           3D

 27 28  0  0  0  0  0  0  0  0999 V2000
    3.1480   -2.5950    1.3980 O   0  5  0  0  0  0  0  0  0  0  0  0
    3.0390   -2.6560    0.1620 C   0  0  0  0  0  0  0  0  0  0  0  0
    4.0460   -2.7320   -0.5580 O   0  0  0  0  0  0  0  0  0  0  0  0
    1.6570   -2.6530   -0.5180 C   0  0  0  0  0  0  0  0  0  0  0  0
    1.8860   -2.6750   -1.5660 H   0  0  0  0  0  0  0  0  0  0  0  0
    0.8540   -1.3700   -0.2560 C   0  0  0  0  0  0  0  0  0  0  0  0
    0.5400   -0.5030   -1.2930 C   0  0  0  0  0  0  0  0  0  0  0  0
    0.8770   -0.7180   -2.2920 H   0  0  0  0  0  0  0  0  0  0  0  0
   -0.2010    0.6420   -1.0540 C   0  0  0  0  0  0  0  0  0  0  0  0
   -0.4370    1.3070   -1.8650 H   0  0  0  0  0  0  0  0  0  0  0  0
   -0.6330    0.9320    0.2280 C   0  0  0  0  0  0  0  0  0  0  0  0
   -1.2080    1.8210    0.4170 H   0  0  0  0  0  0  0  0  0  0  0  0
   -0.3190    0.0760    1.2700 C   0  0  0  0  0  0  0  0  0  0  0  0
   -0.6440    0.2940    2.2710 H   0  0  0  0  0  0  0  0  0  0  0  0
    0.4220   -1.0670    1.0260 C   0  0  0  0  0  0  0  0  0  0  0  0
    0.6770   -1.7330    1.8350 H   0  0  0  0  0  0  0  0  0  0  0  0
    0.7660   -3.8850   -0.2650 C   0  0  0  0  0  0  0  0  0  0  0  0
   -0.3520   -4.0730   -1.0670 C   0  0  0  0  0  0  0  0  0  0  0  0
   -0.5770   -3.3570   -1.8370 H   0  0  0  0  0  0  0  0  0  0  0  0
   -1.1840   -5.1650   -0.8840 C   0  0  0  0  0  0  0  0  0  0  0  0
   -2.0460   -5.2920   -1.5140 H   0  0  0  0  0  0  0  0  0  0  0  0
   -0.9070   -6.0860    0.1090 C   0  0  0  0  0  0  0  0  0  0  0  0
   -1.5510   -6.9350    0.2550 H   0  0  0  0  0  0  0  0  0  0  0  0
    0.2020   -5.9100    0.9170 C   0  0  0  0  0  0  0  0  0  0  0  0
    0.4270   -6.6190    1.6930 H   0  0  0  0  0  0  0  0  0  0  0  0
    1.0320   -4.8170    0.7310 C   0  0  0  0  0  0  0  0  0  0  0  0
    1.8880   -4.6980    1.3740 H   0  0  0  0  0  0  0  0  0  0  0  0
  1  2  1  0  0  0  0
  2  3  2  0  0  0  0
  2  4  1  0  0  0  0
  4  5  1  0  0  0  0
  4  6  1  0  0  0  0
  4 17  1  0  0  0  0
  6  7  1  0  0  0  0
  6 15  2  0  0  0  0
  7  8  1  0  0  0  0
  7  9  2  0  0  0  0
  9 10  1  0  0  0  0
  9 11  1  0  0  0  0
 11 12  1  0  0  0  0
 11 13  2  0  0  0  0
 13 14  1  0  0  0  0
 13 15  1  0  0  0  0
 15 16  1  0  0  0  0
 17 18  1  0  0  0  0
 17 26  2  0  0  0  0
 18 19  1  0  0  0  0
 18 20  2  0  0  0  0
 20 21  1  0  0  0  0
 20 22  1  0  0  0  0
 22 23  1  0  0  0  0
 22 24  2  0  0  0  0
 24 25  1  0  0  0  0
 24 26  1  0  0  0  0
 26 27  1  0  0  0  0
M  CHG  1   1  -1
M  END
>  <Catalog ID>
Z104477292

>  <a_acc>
0

>  <a_don>
0

>  <a_heavy>
16

>  <logP>
3.437

>  <logS>
-3.31866

>  <TPSA>
40.130001

>  <Weight>
211.23999

$$$$
Z111456674
  MOE2024           3D

 26 27  0  0  0  0  0  0  0  0999 V2000
    2.5050    1.8500    0.7760 O   0  5  0  0  0  0  0  0  0  0  0  0
    2.4070    1.4000   -0.3760 C   0  0  0  0  0  0  0  0  0  0  0  0
    3.3750    1.5170   -1.1470 O   0  0  0  0  0  0  0  0  0  0  0  0
    1.1960    0.7430   -0.8290 C   0  0  0  0  0  0  0  0  0  0  0  0
    1.3070   -0.3000   -1.7520 C   0  0  0  0  0  0  0  0  0  0  0  0
    2.2890   -0.5520   -2.1210 H   0  0  0  0  0  0  0  0  0  0  0  0
    0.2100   -1.0120   -2.1910 C   0  0  0  0  0  0  0  0  0  0  0  0
    0.3350   -1.8130   -2.8980 H   0  0  0  0  0  0  0  0  0  0  0  0
   -1.0430   -0.6920   -1.7100 C   0  0  0  0  0  0  0  0  0  0  0  0
   -1.9050   -1.2470   -2.0320 H   0  0  0  0  0  0  0  0  0  0  0  0
   -1.1780    0.3490   -0.8130 C   0  0  0  0  0  0  0  0  0  0  0  0
   -2.1570    0.5970   -0.4430 H   0  0  0  0  0  0  0  0  0  0  0  0
   -0.0880    1.1030   -0.3690 C   0  0  0  0  0  0  0  0  0  0  0  0
   -0.3720    2.2270    0.5090 C   0  0  0  0  0  0  0  0  0  0  0  0
   -1.1680    2.0780    1.4200 O   0  0  0  0  0  0  0  0  0  0  0  0
    0.1660    3.5530    0.2530 C   0  0  0  0  0  0  0  0  0  0  0  0
    0.5450    3.9700   -1.0300 C   0  0  0  0  0  0  0  0  0  0  0  0
    0.4660    3.2850   -1.8560 H   0  0  0  0  0  0  0  0  0  0  0  0
    1.0360    5.2420   -1.2640 C   0  0  0  0  0  0  0  0  0  0  0  0
    1.3360    5.5490   -2.2490 H   0  0  0  0  0  0  0  0  0  0  0  0
    1.1470    6.1160   -0.2000 C   0  0  0  0  0  0  0  0  0  0  0  0
    1.5980    7.3210   -0.4140 F   0  0  0  0  0  0  0  0  0  0  0  0
    0.7900    5.7520    1.0830 C   0  0  0  0  0  0  0  0  0  0  0  0
    0.8970    6.4490    1.8930 H   0  0  0  0  0  0  0  0  0  0  0  0
    0.3050    4.4740    1.2970 C   0  0  0  0  0  0  0  0  0  0  0  0
    0.0340    4.1640    2.2920 H   0  0  0  0  0  0  0  0  0  0  0  0
  1  2  1  0  0  0  0
  2  3  2  0  0  0  0
  2  4  1  0  0  0  0
  4  5  1  0  0  0  0
  4 13  2  0  0  0  0
  5  6  1  0  0  0  0
  5  7  2  0  0  0  0
  7  8  1  0  0  0  0
  7  9  1  0  0  0  0
  9 10  1  0  0  0  0
  9 11  2  0  0  0  0
 11 12  1  0  0  0  0
 11 13  1  0  0  0  0
 13 14  1  0  0  0  0
 14 15  2  0  0  0  0
 14 16  1  0  0  0  0
 16 17  1  0  0  0  0
 16 25  2  0  0  0  0
 17 18  1  0  0  0  0
 17 19  2  0  0  0  0
 19 20  1  0  0  0  0
 19 21  1  0  0  0  0
 21 22  1  0  0  0  0
 21 23  2  0  0  0  0
 23 24  1  0  0  0  0
 23 25  1  0  0  0  0
 25 26  1  0  0  0  0
M  CHG  1   1  -1
M  END
>  <Catalog ID>
Z111456674

>  <a_acc>
1

>  <a_don>
0

>  <a_heavy>
18

>  <logP>
3.3699999

>  <logS>
-3.9825201

>  <TPSA>
57.200001

>  <Weight>
243.213

$$$$
Z104475374
  MOE2024           3D

 16 16  0  0  0  0  0  0  0  0999 V2000
    2.8370    0.0990    0.0280 C   0  0  0  0  0  0  0  0  0  0  0  0
    3.2940   -0.8740    0.0160 H   0  0  0  0  0  0  0  0  0  0  0  0
    3.1540    0.6140    0.9170 H   0  0  0  0  0  0  0  0  0  0  0  0
    3.1760    0.6470   -0.8320 H   0  0  0  0  0  0  0  0  0  0  0  0
    1.3220   -0.0130    0.0060 C   0  0  0  0  0  0  0  0  0  0  0  0
    0.7030   -1.2480   -0.0580 C   0  0  0  0  0  0  0  0  0  0  0  0
    1.2670   -2.1640   -0.0960 H   0  0  0  0  0  0  0  0  0  0  0  0
   -0.6720   -1.2540   -0.0750 C   0  0  0  0  0  0  0  0  0  0  0  0
   -1.2200   -2.1740   -0.1310 H   0  0  0  0  0  0  0  0  0  0  0  0
   -1.3650   -0.0500   -0.0270 C   0  0  0  0  0  0  0  0  0  0  0  0
   -2.7190   -0.0130   -0.0260 N   0  0  0  0  0  0  0  0  0  0  0  0
   -3.0570    0.9420    0.1030 H   0  0  0  0  0  0  0  0  0  0  0  0
   -3.1860   -0.6770    0.5890 H   0  0  0  0  0  0  0  0  0  0  0  0
   -0.7940    1.1360    0.0370 N   0  0  0  0  0  0  0  0  0  0  0  0
    0.5300    1.1250    0.0490 C   0  0  0  0  0  0  0  0  0  0  0  0
    1.0130    2.0850    0.0970 H   0  0  0  0  0  0  0  0  0  0  0  0
  1  2  1  0  0  0  0
  1  3  1  0  0  0  0
  1  4  1  0  0  0  0
  1  5  1  0  0  0  0
  5  6  1  0  0  0  0
  5 15  2  0  0  0  0
  6  7  1  0  0  0  0
  6  8  2  0  0  0  0
  8  9  1  0  0  0  0
  8 10  1  0  0  0  0
 10 11  1  0  0  0  0
 10 14  2  0  0  0  0
 11 12  1  0  0  0  0
 11 13  1  0  0  0  0
 14 15  1  0  0  0  0
 15 16  1  0  0  0  0
M  END
>  <Catalog ID>
Z104475374

>  <a_acc>
1

>  <a_don>
1

>  <a_heavy>
8

>  <logP>
0.704

>  <logS>
-0.31935

>  <TPSA>
38.91

>  <Weight>
108.144

$$$$
Z104476002
  MOE2024           3D

 12 12  0  0  0  0  0  0  0  0999 V2000
    3.5950    1.0090    0.0250 O   0  5  0  0  0  0  0  0  0  0  0  0
    2.8600    0.0020    0.0090 C   0  0  0  0  0  0  0  0  0  0  0  0
    3.4290   -1.1110   -0.0040 O   0  0  0  0  0  0  0  0  0  0  0  0
    1.3890    0.0780    0.0070 C   0  0  0  0  0  0  0  0  0  0  0  0
    0.6980   -1.1420   -0.0120 C   0  0  0  0  0  0  0  0  0  0  0  0
    1.2810   -2.0480   -0.0240 H   0  0  0  0  0  0  0  0  0  0  0  0
   -0.6200   -1.2930   -0.0180 N   0  0  0  0  0  0  0  0  0  0  0  0
   -1.2430   -0.1310   -0.0030 C   0  0  0  0  0  0  0  0  0  0  0  0
   -2.3170   -0.1500   -0.0050 H   0  0  0  0  0  0  0  0  0  0  0  0
   -0.5990    1.0970    0.0160 C   0  0  0  0  0  0  0  0  0  0  0  0
   -1.1920    1.9930    0.0270 H   0  0  0  0  0  0  0  0  0  0  0  0
    0.7080    1.2460    0.0220 N   0  0  0  0  0  0  0  0  0  0  0  0
  1  2  1  0  0  0  0
  2  3  2  0  0  0  0
  2  4  1  0  0  0  0
  4  5  1  0  0  0  0
  4 12  2  0  0  0  0
  5  6  1  0  0  0  0
  5  7  2  0  0  0  0
  7  8  1  0  0  0  0
  8  9  1  0  0  0  0
  8 10  2  0  0  0  0
 10 11  1  0  0  0  0
 10 12  1  0  0  0  0
M  CHG  1   1  -1
M  END
>  <Catalog ID>
Z104476002

>  <a_acc>
2

>  <a_don>
0

>  <a_heavy>
9

>  <logP>
-0.60447001

>  <logS>
0.74862999

>  <TPSA>
65.910004

>  <Weight>
123.091

$$$$
Z220335556
  MOE2024           3D

 14 15  0  0  0  0  0  0  0  0999 V2000
   -1.0650   -2.6150   -0.0050 C   0  0  0  0  0  0  0  0  0  0  0  0
   -2.0690   -2.9990   -0.0080 H   0  0  0  0  0  0  0  0  0  0  0  0
   -0.0100   -3.3410   -0.0060 N   0  0  0  0  0  0  0  0  0  0  0  0
    1.0170   -2.5220   -0.0030 O   0  0  0  0  0  0  0  0  0  0  0  0
    0.6190   -1.2580    0.0000 C   0  0  0  0  0  0  0  0  0  0  0  0
    1.3730   -0.0900    0.0040 C   0  0  0  0  0  0  0  0  0  0  0  0
    2.4470   -0.1460    0.0050 H   0  0  0  0  0  0  0  0  0  0  0  0
    0.7030    1.1160    0.0070 C   0  0  0  0  0  0  0  0  0  0  0  0
    1.2530    2.0420    0.0100 H   0  0  0  0  0  0  0  0  0  0  0  0
   -0.6960    1.1470    0.0060 C   0  0  0  0  0  0  0  0  0  0  0  0
   -1.1980    2.1000    0.0080 H   0  0  0  0  0  0  0  0  0  0  0  0
   -1.4290   -0.0220    0.0020 C   0  0  0  0  0  0  0  0  0  0  0  0
   -2.5050   -0.0070    0.0010 H   0  0  0  0  0  0  0  0  0  0  0  0
   -0.7530   -1.2460   -0.0010 C   0  0  0  0  0  0  0  0  0  0  0  0
  1  2  1  0  0  0  0
  1  3  2  0  0  0  0
  1 14  1  0  0  0  0
  3  4  1  0  0  0  0
  4  5  1  0  0  0  0
  5  6  1  0  0  0  0
  5 14  2  0  0  0  0
  6  7  1  0  0  0  0
  6  8  2  0  0  0  0
  8  9  1  0  0  0  0
  8 10  1  0  0  0  0
 10 11  1  0  0  0  0
 10 12  2  0  0  0  0
 12 13  1  0  0  0  0
 12 14  1  0  0  0  0
M  END
>  <Catalog ID>
Z220335556

>  <a_acc>
1

>  <a_don>
0

>  <a_heavy>
9

>  <logP>
1.668

>  <logS>
-1.87791

>  <TPSA>
26.030001

>  <Weight>
119.123

$$$$
Z276614452
  MOE2024           3D

 15 16  0  0  0  0  0  0  0  0999 V2000
   -1.0440   -2.6160    0.0030 C   0  0  0  0  0  0  0  0  0  0  0  0
   -2.0610   -2.9690    0.0040 H   0  0  0  0  0  0  0  0  0  0  0  0
   -0.0130   -3.3950    0.0010 N   0  0  0  0  0  0  0  0  0  0  0  0
    1.0510   -2.5590    0.0000 N   0  0  0  0  0  0  0  0  0  0  0  0
    2.0190   -2.8970   -0.0010 H   0  0  0  0  0  0  0  0  0  0  0  0
    0.6760   -1.2480    0.0020 C   0  0  0  0  0  0  0  0  0  0  0  0
    1.3990   -0.0500    0.0020 C   0  0  0  0  0  0  0  0  0  0  0  0
    2.4750   -0.0660    0.0010 H   0  0  0  0  0  0  0  0  0  0  0  0
    0.7060    1.1380    0.0050 C   0  0  0  0  0  0  0  0  0  0  0  0
    1.2330    2.0760    0.0050 H   0  0  0  0  0  0  0  0  0  0  0  0
   -0.6960    1.1440    0.0070 C   0  0  0  0  0  0  0  0  0  0  0  0
   -1.2140    2.0880    0.0090 H   0  0  0  0  0  0  0  0  0  0  0  0
   -1.4010   -0.0360    0.0060 C   0  0  0  0  0  0  0  0  0  0  0  0
   -2.4760   -0.0470    0.0080 H   0  0  0  0  0  0  0  0  0  0  0  0
   -0.7030   -1.2520    0.0040 C   0  0  0  0  0  0  0  0  0  0  0  0
  1  2  1  0  0  0  0
  1  3  2  0  0  0  0
  1 15  1  0  0  0  0
  3  4  1  0  0  0  0
  4  5  1  0  0  0  0
  4  6  1  0  0  0  0
  6  7  1  0  0  0  0
  6 15  2  0  0  0  0
  7  8  1  0  0  0  0
  7  9  2  0  0  0  0
  9 10  1  0  0  0  0
  9 11  1  0  0  0  0
 11 12  1  0  0  0  0
 11 13  2  0  0  0  0
 13 14  1  0  0  0  0
 13 15  1  0  0  0  0
M  END
>  <Catalog ID>
Z276614452

>  <a_acc>
2

>  <a_don>
2

>  <a_heavy>
9

>  <logP>
1.9349999

>  <logS>
-1.6676

>  <TPSA>
28.68

>  <Weight>
118.139

$$$$
Z57036632
  MOE2024           3D

 18 18  0  0  0  0  0  0  0  0999 V2000
    3.5940   -1.0990    0.5240 N   0  0  0  0  0  0  0  0  0  0  0  0
    4.6140   -1.0590    0.5370 H   0  0  0  0  0  0  0  0  0  0  0  0
    3.1550   -1.7950    1.1250 H   0  0  0  0  0  0  0  0  0  0  0  0
    2.9180   -0.0590   -0.0210 C   0  0  0  0  0  0  0  0  0  0  0  0
    3.6070    0.8140   -0.5120 O   0  0  0  0  0  0  0  0  0  0  0  0
    1.4690   -0.0060   -0.0050 C   0  0  0  0  0  0  0  0  0  0  0  0
    0.7190   -1.1750   -0.1650 C   0  0  0  0  0  0  0  0  0  0  0  0
    1.2290   -2.1090   -0.3170 H   0  0  0  0  0  0  0  0  0  0  0  0
   -0.6610   -1.1620   -0.1430 C   0  0  0  0  0  0  0  0  0  0  0  0
   -1.2170   -2.0760   -0.2680 H   0  0  0  0  0  0  0  0  0  0  0  0
   -1.3350    0.0340    0.0380 C   0  0  0  0  0  0  0  0  0  0  0  0
   -2.4110    0.0490    0.0580 H   0  0  0  0  0  0  0  0  0  0  0  0
   -0.6200    1.2030    0.1910 C   0  0  0  0  0  0  0  0  0  0  0  0
   -1.1410    2.1320    0.3350 H   0  0  0  0  0  0  0  0  0  0  0  0
    0.7700    1.2040    0.1680 C   0  0  0  0  0  0  0  0  0  0  0  0
    1.4290    2.4100    0.3210 N   0  0  0  0  0  0  0  0  0  0  0  0
    0.9640    3.2650    0.0070 H   0  0  0  0  0  0  0  0  0  0  0  0
    2.4290    2.3880    0.0520 H   0  0  0  0  0  0  0  0  0  0  0  0
  1  2  1  0  0  0  0
  1  3  1  0  0  0  0
  1  4  1  0  0  0  0
  4  5  2  0  0  0  0
  4  6  1  0  0  0  0
  6  7  1  0  0  0  0
  6 15  2  0  0  0  0
  7  8  1  0  0  0  0
  7  9  2  0  0  0  0
  9 10  1  0  0  0  0
  9 11  1  0  0  0  0
 11 12  1  0  0  0  0
 11 13  2  0  0  0  0
 13 14  1  0  0  0  0
 13 15  1  0  0  0  0
 15 16  1  0  0  0  0
 16 17  1  0  0  0  0
 16 18  1  0  0  0  0
M  END
>  <Catalog ID>
Z57036632

>  <a_acc>
1

>  <a_don>
2

>  <a_heavy>
10

>  <logP>
0.175

>  <logS>
-1.35788

>  <TPSA>
69.110001

>  <Weight>
136.15399

$$$$
Z118530082
  MOE2024           3D

 18 18  0  0  0  0  0  0  0  0999 V2000
    3.6000   -1.0600    0.3440 N   0  0  0  0  0  0  0  0  0  0  0  0
    4.6170   -0.9820    0.3310 H   0  0  0  0  0  0  0  0  0  0  0  0
    3.2050   -1.8490    0.8500 H   0  0  0  0  0  0  0  0  0  0  0  0
    2.8710   -0.0080   -0.0980 C   0  0  0  0  0  0  0  0  0  0  0  0
    3.5020    0.9400   -0.5100 O   0  0  0  0  0  0  0  0  0  0  0  0
    1.4180   -0.0070   -0.0620 C   0  0  0  0  0  0  0  0  0  0  0  0
    0.6770   -1.1910   -0.0910 C   0  0  0  0  0  0  0  0  0  0  0  0
    1.1850   -2.1350   -0.1590 H   0  0  0  0  0  0  0  0  0  0  0  0
   -0.7060   -1.1740   -0.0430 C   0  0  0  0  0  0  0  0  0  0  0  0
   -1.2590   -2.0980   -0.0620 H   0  0  0  0  0  0  0  0  0  0  0  0
   -1.3800    0.0300    0.0290 C   0  0  0  0  0  0  0  0  0  0  0  0
   -2.4530    0.0460    0.0730 H   0  0  0  0  0  0  0  0  0  0  0  0
   -0.6760    1.2240    0.0460 C   0  0  0  0  0  0  0  0  0  0  0  0
   -1.3460    2.4310    0.1040 N   0  0  0  0  0  0  0  0  0  0  0  0
   -0.8230    3.2540   -0.2110 H   0  0  0  0  0  0  0  0  0  0  0  0
   -2.3090    2.4340   -0.2430 H   0  0  0  0  0  0  0  0  0  0  0  0
    0.7090    1.1910    0.0030 C   0  0  0  0  0  0  0  0  0  0  0  0
    1.2560    2.1160    0.0230 H   0  0  0  0  0  0  0  0  0  0  0  0
  1  2  1  0  0  0  0
  1  3  1  0  0  0  0
  1  4  1  0  0  0  0
  4  5  2  0  0  0  0
  4  6  1  0  0  0  0
  6  7  1  0  0  0  0
  6 17  2  0  0  0  0
  7  8  1  0  0  0  0
  7  9  2  0  0  0  0
  9 10  1  0  0  0  0
  9 11  1  0  0  0  0
 11 12  1  0  0  0  0
 11 13  2  0  0  0  0
 13 14  1  0  0  0  0
 13 17  1  0  0  0  0
 14 15  1  0  0  0  0
 14 16  1  0  0  0  0
 17 18  1  0  0  0  0
M  END
>  <Catalog ID>
Z118530082

>  <a_acc>
1

>  <a_don>
2

>  <a_heavy>
10

>  <logP>
0.214

>  <logS>
-1.35788

>  <TPSA>
69.110001

>  <Weight>
136.15399

$$$$
Z55692894
  MOE2024           3D

 18 19  0  0  0  0  0  0  0  0999 V2000
   -0.0160   -4.8390   -0.0060 C   0  0  0  0  0  0  0  0  0  0  0  0
    0.9850   -5.2280   -0.0070 H   0  0  0  0  0  0  0  0  0  0  0  0
   -0.5320   -5.1940   -0.8800 H   0  0  0  0  0  0  0  0  0  0  0  0
   -0.5320   -5.1970    0.8660 H   0  0  0  0  0  0  0  0  0  0  0  0
   -0.0140   -3.3260   -0.0030 C   0  0  0  0  0  0  0  0  0  0  0  0
    1.1270   -2.5910   -0.0020 N   0  0  0  0  0  0  0  0  0  0  0  0
    2.0890   -2.9370   -0.0020 H   0  0  0  0  0  0  0  0  0  0  0  0
    0.7370   -1.2930    0.0010 C   0  0  0  0  0  0  0  0  0  0  0  0
    1.4310   -0.0810    0.0040 C   0  0  0  0  0  0  0  0  0  0  0  0
    2.5070   -0.0700    0.0030 H   0  0  0  0  0  0  0  0  0  0  0  0
    0.7050    1.0900    0.0060 C   0  0  0  0  0  0  0  0  0  0  0  0
    1.2080    2.0410    0.0080 H   0  0  0  0  0  0  0  0  0  0  0  0
   -0.6960    1.0610    0.0060 C   0  0  0  0  0  0  0  0  0  0  0  0
   -1.2410    1.9890    0.0080 H   0  0  0  0  0  0  0  0  0  0  0  0
   -1.3710   -0.1400    0.0040 C   0  0  0  0  0  0  0  0  0  0  0  0
   -2.4440   -0.1940    0.0040 H   0  0  0  0  0  0  0  0  0  0  0  0
   -0.6450   -1.3300    0.0010 C   0  0  0  0  0  0  0  0  0  0  0  0
   -1.0880   -2.6180   -0.0010 N   0  0  0  0  0  0  0  0  0  0  0  0
  1  2  1  0  0  0  0
  1  3  1  0  0  0  0
  1  4  1  0  0  0  0
  1  5  1  0  0  0  0
  5  6  1  0  0  0  0
  5 18  2  0  0  0  0
  6  7  1  0  0  0  0
  6  8  1  0  0  0  0
  8  9  1  0  0  0  0
  8 17  2  0  0  0  0
  9 10  1  0  0  0  0
  9 11  2  0  0  0  0
 11 12  1  0  0  0  0
 11 13  1  0  0  0  0
 13 14  1  0  0  0  0
 13 15  2  0  0  0  0
 15 16  1  0  0  0  0
 15 17  1  0  0  0  0
 17 18  1  0  0  0  0
M  END
>  <Catalog ID>
Z55692894

>  <a_acc>
2

>  <a_don>
2

>  <a_heavy>
10

>  <logP>
1.62

>  <logS>
-1.79687

>  <TPSA>
28.68

>  <Weight>
132.166

$$$$
Z316258762
  MOE2024           3D

 21 21  0  0  0  0  0  0  0  0999 V2000
    5.4600   -0.5560    1.0320 O   0  5  0  0  0  0  0  0  0  0  0  0
    4.4870   -1.3240    1.0350 C   0  0  0  0  0  0  0  0  0  0  0  0
    4.4210   -2.2880    1.8110 O   0  0  0  0  0  0  0  0  0  0  0  0
    3.4050   -1.1570   -0.0370 C   0  0  0  0  0  0  0  0  0  0  0  0
    3.0370   -2.1360   -0.2740 H   0  0  0  0  0  0  0  0  0  0  0  0
    3.8740   -0.7330   -0.9040 H   0  0  0  0  0  0  0  0  0  0  0  0
    2.3070   -0.3320    0.3200 O   0  0  0  0  0  0  0  0  0  0  0  0
    1.3140   -0.2410   -0.6480 C   0  0  0  0  0  0  0  0  0  0  0  0
    1.7610   -0.2360   -1.6280 H   0  0  0  0  0  0  0  0  0  0  0  0
    0.5120    1.0240   -0.3710 C   0  0  0  0  0  0  0  0  0  0  0  0
   -0.0160    1.2990   -1.2660 H   0  0  0  0  0  0  0  0  0  0  0  0
    1.1510    1.8380   -0.0760 H   0  0  0  0  0  0  0  0  0  0  0  0
   -0.5010    0.6500    0.7170 C   0  0  0  0  0  0  0  0  0  0  0  0
   -1.4540    1.1130    0.5330 H   0  0  0  0  0  0  0  0  0  0  0  0
   -0.1310    0.9710    1.6760 H   0  0  0  0  0  0  0  0  0  0  0  0
   -0.6040   -0.8810    0.7040 C   0  0  0  0  0  0  0  0  0  0  0  0
   -1.6170   -1.2170    0.5730 H   0  0  0  0  0  0  0  0  0  0  0  0
   -0.2220   -1.2650    1.6350 H   0  0  0  0  0  0  0  0  0  0  0  0
    0.2980   -1.3610   -0.4370 C   0  0  0  0  0  0  0  0  0  0  0  0
    0.7660   -2.3040   -0.2160 H   0  0  0  0  0  0  0  0  0  0  0  0
   -0.2900   -1.4640   -1.3310 H   0  0  0  0  0  0  0  0  0  0  0  0
  1  2  1  0  0  0  0
  2  3  2  0  0  0  0
  2  4  1  0  0  0  0
  4  5  1  0  0  0  0
  4  6  1  0  0  0  0
  4  7  1  0  0  0  0
  7  8  1  0  0  0  0
  8  9  1  0  0  0  0
  8 10  1  0  0  0  0
  8 19  1  0  0  0  0
 10 11  1  0  0  0  0
 10 12  1  0  0  0  0
 10 13  1  0  0  0  0
 13 14  1  0  0  0  0
 13 15  1  0  0  0  0
 13 16  1  0  0  0  0
 16 17  1  0  0  0  0
 16 18  1  0  0  0  0
 16 19  1  0  0  0  0
 19 20  1  0  0  0  0
 19 21  1  0  0  0  0
M  CHG  1   1  -1
M  END
>  <Catalog ID>
Z316258762

>  <a_acc>
1

>  <a_don>
0

>  <a_heavy>
10

>  <logP>
1.3710001

>  <logS>
-0.94538999

>  <TPSA>
49.360001

>  <Weight>
143.162

$$$$
Z1157728598
  MOE2024           3D

 14 14  0  0  0  0  0  0  0  0999 V2000
    4.0360   -0.0570    0.0110 N   0  0  0  0  0  0  0  0  0  0  0  0
    2.8960   -0.0110    0.0080 C   0  0  0  0  0  0  0  0  0  0  0  0
    1.4640   -0.0030    0.0040 C   0  0  0  0  0  0  0  0  0  0  0  0
    0.7370   -1.1920   -0.0020 C   0  0  0  0  0  0  0  0  0  0  0  0
    1.2620   -2.1340   -0.0040 H   0  0  0  0  0  0  0  0  0  0  0  0
   -0.6490   -1.1820   -0.0060 C   0  0  0  0  0  0  0  0  0  0  0  0
   -1.1900   -2.1120   -0.0100 H   0  0  0  0  0  0  0  0  0  0  0  0
   -1.3330    0.0250   -0.0030 C   0  0  0  0  0  0  0  0  0  0  0  0
   -2.6720    0.0460   -0.0070 O   0  0  0  0  0  0  0  0  0  0  0  0
   -3.0840   -0.8360   -0.0110 H   0  0  0  0  0  0  0  0  0  0  0  0
   -0.6420    1.2220    0.0030 C   0  0  0  0  0  0  0  0  0  0  0  0
   -1.1700    2.1580    0.0050 H   0  0  0  0  0  0  0  0  0  0  0  0
    0.7380    1.1840    0.0060 C   0  0  0  0  0  0  0  0  0  0  0  0
    1.3780    2.3240    0.0120 F   0  0  0  0  0  0  0  0  0  0  0  0
  1  2  3  0  0  0  0
  2  3  1  0  0  0  0
  3  4  1  0  0  0  0
  3 13  2  0  0  0  0
  4  5  1  0  0  0  0
  4  6  2  0  0  0  0
  6  7  1  0  0  0  0
  6  8  1  0  0  0  0
  8  9  1  0  0  0  0
  8 11  2  0  0  0  0
  9 10  1  0  0  0  0
 11 12  1  0  0  0  0
 11 13  1  0  0  0  0
 13 14  1  0  0  0  0
M  END
>  <Catalog ID>
Z1157728598

>  <a_acc>
2

>  <a_don>
1

>  <a_heavy>
10

>  <logP>
1.446

>  <logS>
-1.6688401

>  <TPSA>
44.02

>  <Weight>
137.11299

$$$$
Z56922083
  MOE2024           3D

 17 18  0  0  0  0  0  0  0  0999 V2000
   -0.1630   -4.6720   -0.0120 O   0  0  0  0  0  0  0  0  0  0  0  0
   -0.0670   -3.4720   -0.0060 C   0  0  0  0  0  0  0  0  0  0  0  0
    1.2430   -2.7020   -0.0040 C   0  0  0  0  0  0  0  0  0  0  0  0
    1.8070   -2.9170   -0.8920 H   0  0  0  0  0  0  0  0  0  0  0  0
    1.8090   -2.9240    0.8810 H   0  0  0  0  0  0  0  0  0  0  0  0
    0.7190   -1.2700    0.0010 C   0  0  0  0  0  0  0  0  0  0  0  0
    1.4130   -0.0740    0.0040 C   0  0  0  0  0  0  0  0  0  0  0  0
    2.4890   -0.0600    0.0030 H   0  0  0  0  0  0  0  0  0  0  0  0
    0.6910    1.1120    0.0080 C   0  0  0  0  0  0  0  0  0  0  0  0
    1.1960    2.0610    0.0110 H   0  0  0  0  0  0  0  0  0  0  0  0
   -0.6970    1.0740    0.0100 C   0  0  0  0  0  0  0  0  0  0  0  0
   -1.5850    2.5760    0.0160 Cl  0  0  0  0  0  0  0  0  0  0  0  0
   -1.3950   -0.1200    0.0080 C   0  0  0  0  0  0  0  0  0  0  0  0
   -2.4690   -0.1300    0.0090 H   0  0  0  0  0  0  0  0  0  0  0  0
   -0.6640   -1.2950    0.0030 C   0  0  0  0  0  0  0  0  0  0  0  0
   -1.1070   -2.6050   -0.0010 N   0  0  0  0  0  0  0  0  0  0  0  0
   -2.0750   -2.9230   -0.0020 H   0  0  0  0  0  0  0  0  0  0  0  0
  1  2  2  0  0  0  0
  2  3  1  0  0  0  0
  2 16  1  0  0  0  0
  3  4  1  0  0  0  0
  3  5  1  0  0  0  0
  3  6  1  0  0  0  0
  6  7  1  0  0  0  0
  6 15  2  0  0  0  0
  7  8  1  0  0  0  0
  7  9  2  0  0  0  0
  9 10  1  0  0  0  0
  9 11  1  0  0  0  0
 11 12  1  0  0  0  0
 11 13  2  0  0  0  0
 13 14  1  0  0  0  0
 13 15  1  0  0  0  0
 15 16  1  0  0  0  0
 16 17  1  0  0  0  0
M  END
>  <Catalog ID>
Z56922083

>  <a_acc>
1

>  <a_don>
1

>  <a_heavy>
11

>  <logP>
1.6059999

>  <logS>
-2.5051301

>  <TPSA>
29.1

>  <Weight>
167.595

$$$$
Z106939542
  MOE2024           3D

 16 16  0  0  0  0  0  0  0  0999 V2000
    2.7920   -0.1700   -0.2950 N   0  0  0  0  0  0  0  0  0  0  0  0
    3.1980    0.7970   -0.3130 H   0  0  0  0  0  0  0  0  0  0  0  0
    3.2650   -0.6930    0.4400 H   0  0  0  0  0  0  0  0  0  0  0  0
    1.4250   -0.0720   -0.1630 C   0  0  0  0  0  0  0  0  0  0  0  0
    0.6810   -1.2440   -0.1570 C   0  0  0  0  0  0  0  0  0  0  0  0
    1.1720   -2.1920   -0.2570 H   0  0  0  0  0  0  0  0  0  0  0  0
   -0.6870   -1.1740   -0.0320 C   0  0  0  0  0  0  0  0  0  0  0  0
   -1.3830   -2.2800   -0.0260 F   0  0  0  0  0  0  0  0  0  0  0  0
   -1.3500    0.0300    0.0880 C   0  0  0  0  0  0  0  0  0  0  0  0
   -2.4200    0.0550    0.1810 H   0  0  0  0  0  0  0  0  0  0  0  0
   -0.6030    1.1920    0.0830 C   0  0  0  0  0  0  0  0  0  0  0  0
   -1.1040    2.1430    0.1760 H   0  0  0  0  0  0  0  0  0  0  0  0
    0.7940    1.1820   -0.0360 C   0  0  0  0  0  0  0  0  0  0  0  0
    1.5210    2.4480   -0.0130 C   0  0  0  0  0  0  0  0  0  0  0  0
    0.9030    3.5280    0.0310 O   0  5  0  0  0  0  0  0  0  0  0  0
    2.7700    2.5000   -0.0170 O   0  0  0  0  0  0  0  0  0  0  0  0
  1  2  1  0  0  0  0
  1  3  1  0  0  0  0
  1  4  1  0  0  0  0
  4  5  1  0  0  0  0
  4 13  2  0  0  0  0
  5  6  1  0  0  0  0
  5  7  2  0  0  0  0
  7  8  1  0  0  0  0
  7  9  1  0  0  0  0
  9 10  1  0  0  0  0
  9 11  2  0  0  0  0
 11 12  1  0  0  0  0
 11 13  1  0  0  0  0
 13 14  1  0  0  0  0
 14 15  1  0  0  0  0
 14 16  2  0  0  0  0
M  CHG  1  15  -1
M  END
>  <Catalog ID>
Z106939542

>  <a_acc>
0

>  <a_don>
1

>  <a_heavy>
11

>  <logP>
1.22

>  <logS>
-1.63059

>  <TPSA>
66.150002

>  <Weight>
154.12

$$$$
Z239125320
  MOE2024           3D

 18 18  0  0  0  0  0  0  0  0999 V2000
    3.5940   -1.0870   -0.5500 N   0  0  0  0  0  0  0  0  0  0  0  0
    4.6140   -1.0500   -0.5690 H   0  0  0  0  0  0  0  0  0  0  0  0
    3.1520   -1.7840   -1.1470 H   0  0  0  0  0  0  0  0  0  0  0  0
    2.9270   -0.0540    0.0170 C   0  0  0  0  0  0  0  0  0  0  0  0
    3.6210    0.8120    0.5110 O   0  0  0  0  0  0  0  0  0  0  0  0
    1.4780    0.0010    0.0270 C   0  0  0  0  0  0  0  0  0  0  0  0
    0.7310   -1.1720    0.1700 C   0  0  0  0  0  0  0  0  0  0  0  0
    1.2270   -2.1180    0.2870 H   0  0  0  0  0  0  0  0  0  0  0  0
   -0.6450   -1.1350    0.1740 C   0  0  0  0  0  0  0  0  0  0  0  0
   -1.5420   -2.6240    0.3510 Cl  0  0  0  0  0  0  0  0  0  0  0  0
   -1.3350    0.0550    0.0410 C   0  0  0  0  0  0  0  0  0  0  0  0
   -2.4100    0.0560    0.0450 H   0  0  0  0  0  0  0  0  0  0  0  0
   -0.6180    1.2260   -0.0960 C   0  0  0  0  0  0  0  0  0  0  0  0
   -1.1370    2.1620   -0.2050 H   0  0  0  0  0  0  0  0  0  0  0  0
    0.7740    1.2160   -0.1030 C   0  0  0  0  0  0  0  0  0  0  0  0
    1.4330    2.4220   -0.2430 N   0  0  0  0  0  0  0  0  0  0  0  0
    0.9810    3.2750    0.0960 H   0  0  0  0  0  0  0  0  0  0  0  0
    2.4400    2.3940    0.0000 H   0  0  0  0  0  0  0  0  0  0  0  0
  1  2  1  0  0  0  0
  1  3  1  0  0  0  0
  1  4  1  0  0  0  0
  4  5  2  0  0  0  0
  4  6  1  0  0  0  0
  6  7  1  0  0  0  0
  6 15  2  0  0  0  0
  7  8  1  0  0  0  0
  7  9  2  0  0  0  0
  9 10  1  0  0  0  0
  9 11  1  0  0  0  0
 11 12  1  0  0  0  0
 11 13  2  0  0  0  0
 13 14  1  0  0  0  0
 13 15  1  0  0  0  0
 15 16  1  0  0  0  0
 16 17  1  0  0  0  0
 16 18  1  0  0  0  0
M  END
>  <Catalog ID>
Z239125320

>  <a_acc>
1

>  <a_don>
2

>  <a_heavy>
11

>  <logP>
0.80400002

>  <logS>
-2.09217

>  <TPSA>
69.110001

>  <Weight>
170.599

$$$$
Z431554234
  MOE2024           3D

 17 17  0  0  0  0  0  0  0  0999 V2000
    2.8110   -0.0730   -0.1200 N   0  0  0  0  0  0  0  0  0  0  0  0
    3.2070    0.8640    0.0170 H   0  0  0  0  0  0  0  0  0  0  0  0
    3.2470   -0.7570    0.5000 H   0  0  0  0  0  0  0  0  0  0  0  0
    1.4260   -0.0360   -0.0700 C   0  0  0  0  0  0  0  0  0  0  0  0
    0.6840   -1.2070   -0.1040 C   0  0  0  0  0  0  0  0  0  0  0  0
    1.1920   -2.1490   -0.1850 H   0  0  0  0  0  0  0  0  0  0  0  0
   -0.6970   -1.1700   -0.0410 C   0  0  0  0  0  0  0  0  0  0  0  0
   -1.2630   -2.0880   -0.0690 H   0  0  0  0  0  0  0  0  0  0  0  0
   -1.4000    0.0340    0.0560 C   0  0  0  0  0  0  0  0  0  0  0  0
   -0.6420    1.2080    0.0870 C   0  0  0  0  0  0  0  0  0  0  0  0
   -1.1680    2.1430    0.1620 H   0  0  0  0  0  0  0  0  0  0  0  0
    0.7370    1.1770    0.0270 C   0  0  0  0  0  0  0  0  0  0  0  0
    1.4170    2.3470    0.0750 O   0  0  0  0  0  0  0  0  0  0  0  0
    0.7980    3.0980    0.1090 H   0  0  0  0  0  0  0  0  0  0  0  0
   -2.8540    0.0740    0.1240 C   0  0  0  0  0  0  0  0  0  0  0  0
   -3.5230   -0.9750    0.1020 O   0  5  0  0  0  0  0  0  0  0  0  0
   -3.4520    1.1630    0.2100 O   0  0  0  0  0  0  0  0  0  0  0  0
  1  2  1  0  0  0  0
  1  3  1  0  0  0  0
  1  4  1  0  0  0  0
  4  5  1  0  0  0  0
  4 12  2  0  0  0  0
  5  6  1  0  0  0  0
  5  7  2  0  0  0  0
  7  8  1  0  0  0  0
  7  9  1  0  0  0  0
  9 10  2  0  0  0  0
  9 15  1  0  0  0  0
 10 11  1  0  0  0  0
 10 12  1  0  0  0  0
 12 13  1  0  0  0  0
 13 14  1  0  0  0  0
 15 16  1  0  0  0  0
 15 17  2  0  0  0  0
M  CHG  1  16  -1
M  END
>  <Catalog ID>
Z431554234

>  <a_acc>
1

>  <a_don>
2

>  <a_heavy>
11

>  <logP>
0.759

>  <logS>
-0.97365999

>  <TPSA>
86.379997

>  <Weight>
152.129

$$$$
Z666140572
  MOE2024           3D

 14 15  0  0  0  0  0  0  0  0999 V2000
   -2.6370    4.9430   -0.0190 O   0  5  0  0  0  0  0  0  0  0  0  0
   -1.4320    4.6360   -0.0080 C   0  0  0  0  0  0  0  0  0  0  0  0
   -0.5830    5.5460    0.0010 O   0  0  0  0  0  0  0  0  0  0  0  0
   -0.9980    3.2570   -0.0050 C   0  0  0  0  0  0  0  0  0  0  0  0
    0.2550    2.7180    0.0060 C   0  0  0  0  0  0  0  0  0  0  0  0
    1.1640    3.2930    0.0150 H   0  0  0  0  0  0  0  0  0  0  0  0
    0.2460    1.3030    0.0050 C   0  0  0  0  0  0  0  0  0  0  0  0
    1.5000    0.0660    0.0160 S   0  0  0  0  0  0  0  0  0  0  0  0
    0.2830   -1.2240    0.0040 C   0  0  0  0  0  0  0  0  0  0  0  0
    0.6420   -2.2380    0.0060 H   0  0  0  0  0  0  0  0  0  0  0  0
   -0.9700   -0.7170   -0.0070 C   0  0  0  0  0  0  0  0  0  0  0  0
   -1.8940   -1.2650   -0.0160 H   0  0  0  0  0  0  0  0  0  0  0  0
   -0.9550    0.7040   -0.0060 C   0  0  0  0  0  0  0  0  0  0  0  0
   -2.2050    1.9370   -0.0170 S   0  0  0  0  0  0  0  0  0  0  0  0
  1  2  1  0  0  0  0
  2  3  2  0  0  0  0
  2  4  1  0  0  0  0
  4  5  2  0  0  0  0
  4 14  1  0  0  0  0
  5  6  1  0  0  0  0
  5  7  1  0  0  0  0
  7  8  1  0  0  0  0
  7 13  2  0  0  0  0
  8  9  1  0  0  0  0
  9 10  1  0  0  0  0
  9 11  2  0  0  0  0
 11 12  1  0  0  0  0
 11 13  1  0  0  0  0
 13 14  1  0  0  0  0
M  CHG  1   1  -1
M  END
>  <Catalog ID>
Z666140572

>  <a_acc>
0

>  <a_don>
0

>  <a_heavy>
11

>  <logP>
2.5680001

>  <logS>
-2.89063

>  <TPSA>
40.130001

>  <Weight>
183.231

$$$$
Z53833897
  MOE2024           3D

 20 20  0  0  0  0  0  0  0  0999 V2000
    4.9950   -1.2420   -0.0840 C   0  0  0  0  0  0  0  0  0  0  0  0
    5.2600   -2.2590   -0.3120 H   0  0  0  0  0  0  0  0  0  0  0  0
    5.3350   -0.9830    0.9040 H   0  0  0  0  0  0  0  0  0  0  0  0
    5.4250   -0.5750   -0.8110 H   0  0  0  0  0  0  0  0  0  0  0  0
    3.5860   -1.1230   -0.1290 O   0  0  0  0  0  0  0  0  0  0  0  0
    2.9640    0.0410    0.0980 C   0  0  0  0  0  0  0  0  0  0  0  0
    3.6530    1.0130    0.3570 O   0  0  0  0  0  0  0  0  0  0  0  0
    1.5150    0.0520    0.0310 C   0  0  0  0  0  0  0  0  0  0  0  0
    0.7970   -1.1500    0.1160 C   0  0  0  0  0  0  0  0  0  0  0  0
    1.3310   -2.0790    0.2220 H   0  0  0  0  0  0  0  0  0  0  0  0
   -0.5820   -1.1830    0.0700 C   0  0  0  0  0  0  0  0  0  0  0  0
   -1.1210   -2.1120    0.1370 H   0  0  0  0  0  0  0  0  0  0  0  0
   -1.2780    0.0030   -0.0640 C   0  0  0  0  0  0  0  0  0  0  0  0
   -3.0200   -0.0320   -0.1190 Cl  0  0  0  0  0  0  0  0  0  0  0  0
   -0.6160    1.2050   -0.1550 C   0  0  0  0  0  0  0  0  0  0  0  0
   -1.1780    2.1130   -0.2670 H   0  0  0  0  0  0  0  0  0  0  0  0
    0.7730    1.2460   -0.1120 C   0  0  0  0  0  0  0  0  0  0  0  0
    1.3800    2.4830   -0.2230 N   0  0  0  0  0  0  0  0  0  0  0  0
    0.8810    3.3300    0.0600 H   0  0  0  0  0  0  0  0  0  0  0  0
    2.3940    2.5170   -0.0130 H   0  0  0  0  0  0  0  0  0  0  0  0
  1  2  1  0  0  0  0
  1  3  1  0  0  0  0
  1  4  1  0  0  0  0
  1  5  1  0  0  0  0
  5  6  1  0  0  0  0
  6  7  2  0  0  0  0
  6  8  1  0  0  0  0
  8  9  1  0  0  0  0
  8 17  2  0  0  0  0
  9 10  1  0  0  0  0
  9 11  2  0  0  0  0
 11 12  1  0  0  0  0
 11 13  1  0  0  0  0
 13 14  1  0  0  0  0
 13 15  2  0  0  0  0
 15 16  1  0  0  0  0
 15 17  1  0  0  0  0
 17 18  1  0  0  0  0
 18 19  1  0  0  0  0
 18 20  1  0  0  0  0
M  END
>  <Catalog ID>
Z53833897

>  <a_acc>
1

>  <a_don>
1

>  <a_heavy>
12

>  <logP>
1.802

>  <logS>
-2.2217801

>  <TPSA>
52.32

>  <Weight>
185.61

$$$$
Z57337726
  MOE2024           3D

 21 22  0  0  0  0  0  0  0  0999 V2000
   -2.9030   -4.5440   -0.0040 C   0  0  0  0  0  0  0  0  0  0  0  0
   -2.0290   -5.1630   -0.0050 H   0  0  0  0  0  0  0  0  0  0  0  0
   -3.4870   -4.7660   -0.8780 H   0  0  0  0  0  0  0  0  0  0  0  0
   -3.4880   -4.7690    0.8680 H   0  0  0  0  0  0  0  0  0  0  0  0
   -2.5610   -3.0680   -0.0010 C   0  0  0  0  0  0  0  0  0  0  0  0
   -3.5040   -2.3170    0.0000 O   0  0  0  0  0  0  0  0  0  0  0  0
   -1.1850   -2.6400    0.0000 C   0  0  0  0  0  0  0  0  0  0  0  0
   -0.0320   -3.3880    0.0020 C   0  0  0  0  0  0  0  0  0  0  0  0
    0.0670   -4.4590    0.0020 H   0  0  0  0  0  0  0  0  0  0  0  0
    1.0600   -2.5890    0.0020 N   0  0  0  0  0  0  0  0  0  0  0  0
    2.0430   -2.8820    0.0040 H   0  0  0  0  0  0  0  0  0  0  0  0
    0.6390   -1.2880    0.0010 C   0  0  0  0  0  0  0  0  0  0  0  0
    1.3770   -0.1030    0.0010 C   0  0  0  0  0  0  0  0  0  0  0  0
    2.4520   -0.1330    0.0020 H   0  0  0  0  0  0  0  0  0  0  0  0
    0.7040    1.0970    0.0000 C   0  0  0  0  0  0  0  0  0  0  0  0
    1.2460    2.0270    0.0000 H   0  0  0  0  0  0  0  0  0  0  0  0
   -0.6950    1.1230   -0.0010 C   0  0  0  0  0  0  0  0  0  0  0  0
   -1.2030    2.0710   -0.0020 H   0  0  0  0  0  0  0  0  0  0  0  0
   -1.4170   -0.0490   -0.0010 C   0  0  0  0  0  0  0  0  0  0  0  0
   -2.4920   -0.0300   -0.0020 H   0  0  0  0  0  0  0  0  0  0  0  0
   -0.7510   -1.2810    0.0000 C   0  0  0  0  0  0  0  0  0  0  0  0
  1  2  1  0  0  0  0
  1  3  1  0  0  0  0
  1  4  1  0  0  0  0
  1  5  1  0  0  0  0
  5  6  2  0  0  0  0
  5  7  1  0  0  0  0
  7  8  2  0  0  0  0
  7 21  1  0  0  0  0
  8  9  1  0  0  0  0
  8 10  1  0  0  0  0
 10 11  1  0  0  0  0
 10 12  1  0  0  0  0
 12 13  1  0  0  0  0
 12 21  2  0  0  0  0
 13 14  1  0  0  0  0
 13 15  2  0  0  0  0
 15 16  1  0  0  0  0
 15 17  1  0  0  0  0
 17 18  1  0  0  0  0
 17 19  2  0  0  0  0
 19 20  1  0  0  0  0
 19 21  1  0  0  0  0
M  END
>  <Catalog ID>
Z57337726

>  <a_acc>
1

>  <a_don>
1

>  <a_heavy>
12

>  <logP>
2.125

>  <logS>
-1.9870501

>  <TPSA>
32.860001

>  <Weight>
159.188

$$$$
Z285150320
  MOE2024           3D

 19 20  0  0  0  0  0  0  0  0999 V2000
   -4.0450    3.8180    0.0010 O   0  5  0  0  0  0  0  0  0  0  0  0
   -2.8480    4.1610    0.0020 C   0  0  0  0  0  0  0  0  0  0  0  0
   -2.5790    5.3770    0.0040 O   0  0  0  0  0  0  0  0  0  0  0  0
   -1.7860    3.1610    0.0000 C   0  0  0  0  0  0  0  0  0  0  0  0
   -0.4330    3.5320    0.0000 C   0  0  0  0  0  0  0  0  0  0  0  0
   -0.1950    4.5830    0.0020 H   0  0  0  0  0  0  0  0  0  0  0  0
    0.5860    2.5930   -0.0020 C   0  0  0  0  0  0  0  0  0  0  0  0
    1.6180    2.8880   -0.0020 H   0  0  0  0  0  0  0  0  0  0  0  0
    0.2460    1.2550   -0.0040 C   0  0  0  0  0  0  0  0  0  0  0  0
    1.1050    0.2230   -0.0060 O   0  0  0  0  0  0  0  0  0  0  0  0
    0.3820   -1.0010   -0.0070 C   0  0  0  0  0  0  0  0  0  0  0  0
    0.6540   -1.5490    0.8770 H   0  0  0  0  0  0  0  0  0  0  0  0
    0.6550   -1.5500   -0.8890 H   0  0  0  0  0  0  0  0  0  0  0  0
   -1.1140   -0.6370   -0.0070 C   0  0  0  0  0  0  0  0  0  0  0  0
   -1.6060   -1.0090    0.8730 H   0  0  0  0  0  0  0  0  0  0  0  0
   -1.6050   -1.0060   -0.8900 H   0  0  0  0  0  0  0  0  0  0  0  0
   -1.0640    0.8590   -0.0050 C   0  0  0  0  0  0  0  0  0  0  0  0
   -2.0810    1.7920   -0.0030 C   0  0  0  0  0  0  0  0  0  0  0  0
   -3.1130    1.4830   -0.0030 H   0  0  0  0  0  0  0  0  0  0  0  0
  1  2  1  0  0  0  0
  2  3  2  0  0  0  0
  2  4  1  0  0  0  0
  4  5  1  0  0  0  0
  4 18  2  0  0  0  0
  5  6  1  0  0  0  0
  5  7  2  0  0  0  0
  7  8  1  0  0  0  0
  7  9  1  0  0  0  0
  9 10  1  0  0  0  0
  9 17  2  0  0  0  0
 10 11  1  0  0  0  0
 11 12  1  0  0  0  0
 11 13  1  0  0  0  0
 11 14  1  0  0  0  0
 14 15  1  0  0  0  0
 14 16  1  0  0  0  0
 14 17  1  0  0  0  0
 17 18  1  0  0  0  0
 18 19  1  0  0  0  0
M  CHG  1   1  -1
M  END
>  <Catalog ID>
Z285150320

>  <a_acc>
1

>  <a_don>
0

>  <a_heavy>
12

>  <logP>
1.603

>  <logS>
-1.8489799

>  <TPSA>
49.360001

>  <Weight>
163.15199

$$$$
Z317038012
  MOE2024           3D

 21 21  0  0  0  0  0  0  0  0999 V2000
    5.7060   -0.1440   -0.0410 O   0  5  0  0  0  0  0  0  0  0  0  0
    5.1640   -1.2540    0.0040 C   0  0  0  0  0  0  0  0  0  0  0  0
    5.8070   -2.3050    0.0520 O   0  0  0  0  0  0  0  0  0  0  0  0
    3.6560   -1.3570    0.0000 C   0  0  0  0  0  0  0  0  0  0  0  0
    3.3770   -1.9160    0.8720 H   0  0  0  0  0  0  0  0  0  0  0  0
    3.3820   -1.9150   -0.8740 H   0  0  0  0  0  0  0  0  0  0  0  0
    2.9430    0.0060    0.0000 C   0  0  0  0  0  0  0  0  0  0  0  0
    3.2680    0.5570   -0.8660 H   0  0  0  0  0  0  0  0  0  0  0  0
    3.2700    0.5570    0.8650 H   0  0  0  0  0  0  0  0  0  0  0  0
    1.4130   -0.0450    0.0010 C   0  0  0  0  0  0  0  0  0  0  0  0
    0.6820   -1.2280    0.0000 C   0  0  0  0  0  0  0  0  0  0  0  0
    1.1820   -2.1800   -0.0010 H   0  0  0  0  0  0  0  0  0  0  0  0
   -0.7030   -1.2040    0.0010 C   0  0  0  0  0  0  0  0  0  0  0  0
   -1.2490   -2.1270    0.0000 H   0  0  0  0  0  0  0  0  0  0  0  0
   -1.3670    0.0110    0.0020 C   0  0  0  0  0  0  0  0  0  0  0  0
   -2.7090    0.0490    0.0030 O   0  0  0  0  0  0  0  0  0  0  0  0
   -3.1110   -0.8360    0.0020 H   0  0  0  0  0  0  0  0  0  0  0  0
   -0.6540    1.1960    0.0030 C   0  0  0  0  0  0  0  0  0  0  0  0
   -1.1800    2.1320    0.0040 H   0  0  0  0  0  0  0  0  0  0  0  0
    0.7300    1.1630    0.0030 C   0  0  0  0  0  0  0  0  0  0  0  0
    1.2820    2.0860    0.0030 H   0  0  0  0  0  0  0  0  0  0  0  0
  1  2  1  0  0  0  0
  2  3  2  0  0  0  0
  2  4  1  0  0  0  0
  4  5  1  0  0  0  0
  4  6  1  0  0  0  0
  4  7  1  0  0  0  0
  7  8  1  0  0  0  0
  7  9  1  0  0  0  0
  7 10  1  0  0  0  0
 10 11  1  0  0  0  0
 10 20  2  0  0  0  0
 11 12  1  0  0  0  0
 11 13  2  0  0  0  0
 13 14  1  0  0  0  0
 13 15  1  0  0  0  0
 15 16  1  0  0  0  0
 15 18  2  0  0  0  0
 16 17  1  0  0  0  0
 18 19  1  0  0  0  0
 18 20  1  0  0  0  0
 20 21  1  0  0  0  0
M  CHG  1   1  -1
M  END
>  <Catalog ID>
Z317038012

>  <a_acc>
1

>  <a_don>
1

>  <a_heavy>
12

>  <logP>
1.572

>  <logS>
-1.19617

>  <TPSA>
60.360001

>  <Weight>
165.168

$$$$
Z362758732
  MOE2024           3D

 22 22  0  0  0  0  0  0  0  0999 V2000
    2.8390    0.1390   -0.0460 C   0  0  0  0  0  0  0  0  0  0  0  0
    3.2820   -0.8390   -0.0890 H   0  0  0  0  0  0  0  0  0  0  0  0
    3.1930    0.6410    0.8360 H   0  0  0  0  0  0  0  0  0  0  0  0
    3.1470    0.6970   -0.9120 H   0  0  0  0  0  0  0  0  0  0  0  0
    1.3250    0.0510   -0.0080 C   0  0  0  0  0  0  0  0  0  0  0  0
    0.6810   -1.1740    0.0020 C   0  0  0  0  0  0  0  0  0  0  0  0
    1.2590   -2.0780   -0.0170 H   0  0  0  0  0  0  0  0  0  0  0  0
   -0.6990   -1.2350    0.0420 C   0  0  0  0  0  0  0  0  0  0  0  0
   -1.3830   -2.5950    0.0670 C   0  0  0  0  0  0  0  0  0  0  0  0
   -0.6640   -3.3910    0.1160 H   0  0  0  0  0  0  0  0  0  0  0  0
   -1.9780   -2.7190   -0.8190 H   0  0  0  0  0  0  0  0  0  0  0  0
   -2.0230   -2.6580    0.9280 H   0  0  0  0  0  0  0  0  0  0  0  0
   -1.4540   -0.0590    0.0690 C   0  0  0  0  0  0  0  0  0  0  0  0
   -2.8320   -0.1380    0.1050 N   0  0  0  0  0  0  0  0  0  0  0  0
   -3.2220    0.8320    0.1490 H   0  0  0  0  0  0  0  0  0  0  0  0
   -3.2450   -0.6050   -0.6980 H   0  0  0  0  0  0  0  0  0  0  0  0
   -0.8250    1.2000    0.0520 C   0  0  0  0  0  0  0  0  0  0  0  0
    0.5730    1.2080    0.0180 C   0  0  0  0  0  0  0  0  0  0  0  0
    1.0740    2.1620    0.0100 H   0  0  0  0  0  0  0  0  0  0  0  0
   -1.5450    2.4720    0.0540 C   0  0  0  0  0  0  0  0  0  0  0  0
   -2.7920    2.5380   -0.0280 O   0  5  0  0  0  0  0  0  0  0  0  0
   -0.9260    3.5510    0.1210 O   0  0  0  0  0  0  0  0  0  0  0  0
  1  2  1  0  0  0  0
  1  3  1  0  0  0  0
  1  4  1  0  0  0  0
  1  5  1  0  0  0  0
  5  6  1  0  0  0  0
  5 18  2  0  0  0  0
  6  7  1  0  0  0  0
  6  8  2  0  0  0  0
  8  9  1  0  0  0  0
  8 13  1  0  0  0  0
  9 10  1  0  0  0  0
  9 11  1  0  0  0  0
  9 12  1  0  0  0  0
 13 14  1  0  0  0  0
 13 17  2  0  0  0  0
 14 15  1  0  0  0  0
 14 16  1  0  0  0  0
 17 18  1  0  0  0  0
 17 20  1  0  0  0  0
 18 19  1  0  0  0  0
 20 21  1  0  0  0  0
 20 22  2  0  0  0  0
M  CHG  1  21  -1
M  END
>  <Catalog ID>
Z362758732

>  <a_acc>
0

>  <a_don>
1

>  <a_heavy>
12

>  <logP>
1.698

>  <logS>
-1.97

>  <TPSA>
66.150002

>  <Weight>
164.18399

$$$$
Z445135574
  MOE2024           3D

 19 20  0  0  0  0  0  0  0  0999 V2000
    2.7730   -0.0680   -0.4420 N   0  0  0  0  0  0  0  0  0  0  0  0
    3.3340    0.7560   -0.2060 H   0  0  0  0  0  0  0  0  0  0  0  0
    3.2370   -0.9480   -0.1960 H   0  0  0  0  0  0  0  0  0  0  0  0
    1.4060    0.0090   -0.2960 C   0  0  0  0  0  0  0  0  0  0  0  0
    0.6390   -1.1480   -0.2120 C   0  0  0  0  0  0  0  0  0  0  0  0
    1.1270   -2.1050   -0.2690 H   0  0  0  0  0  0  0  0  0  0  0  0
   -0.7330   -1.0820   -0.0590 C   0  0  0  0  0  0  0  0  0  0  0  0
   -1.3180   -1.9820    0.0050 H   0  0  0  0  0  0  0  0  0  0  0  0
   -1.3580    0.1570    0.0080 C   0  0  0  0  0  0  0  0  0  0  0  0
   -2.7630    0.4310    0.1660 C   0  0  0  0  0  0  0  0  0  0  0  0
   -3.4710   -0.3770    0.2470 H   0  0  0  0  0  0  0  0  0  0  0  0
   -3.0420    1.7420    0.1940 C   0  0  0  0  0  0  0  0  0  0  0  0
   -4.0000    2.2100    0.3010 H   0  0  0  0  0  0  0  0  0  0  0  0
   -1.6160    2.8010    0.0310 S   0  0  0  0  0  0  0  0  0  0  0  0
   -1.6710    3.5000   -1.2340 O   0  0  0  0  0  0  0  0  0  0  0  0
   -1.3860    3.5030    1.2750 O   0  0  0  0  0  0  0  0  0  0  0  0
   -0.5980    1.3210   -0.0800 C   0  0  0  0  0  0  0  0  0  0  0  0
    0.7740    1.2460   -0.2320 C   0  0  0  0  0  0  0  0  0  0  0  0
    1.3570    2.1460   -0.3050 H   0  0  0  0  0  0  0  0  0  0  0  0
  1  2  1  0  0  0  0
  1  3  1  0  0  0  0
  1  4  1  0  0  0  0
  4  5  1  0  0  0  0
  4 18  2  0  0  0  0
  5  6  1  0  0  0  0
  5  7  2  0  0  0  0
  7  8  1  0  0  0  0
  7  9  1  0  0  0  0
  9 10  1  0  0  0  0
  9 17  2  0  0  0  0
 10 11  1  0  0  0  0
 10 12  2  0  0  0  0
 12 13  1  0  0  0  0
 12 14  1  0  0  0  0
 14 15  2  0  0  0  0
 14 16  2  0  0  0  0
 14 17  1  0  0  0  0
 17 18  1  0  0  0  0
 18 19  1  0  0  0  0
M  END
>  <Catalog ID>
Z445135574

>  <a_acc>
2

>  <a_don>
1

>  <a_heavy>
12

>  <logP>
0.51099998

>  <logS>
-1.64142

>  <TPSA>
60.16

>  <Weight>
181.215

$$$$
Z1508918230
  MOE2024           3D

 15 16  0  0  0  0  0  0  0  0999 V2000
    3.3700    1.0010    0.0030 O   0  5  0  0  0  0  0  0  0  0  0  0
    2.6510   -0.0100   -0.0040 C   0  0  0  0  0  0  0  0  0  0  0  0
    3.1630   -1.1440   -0.0130 O   0  0  0  0  0  0  0  0  0  0  0  0
    1.2180    0.0960   -0.0040 C   0  0  0  0  0  0  0  0  0  0  0  0
    0.3740    1.1840    0.0050 C   0  0  0  0  0  0  0  0  0  0  0  0
    0.6780    2.2160    0.0130 H   0  0  0  0  0  0  0  0  0  0  0  0
   -0.9470    0.7140    0.0010 C   0  0  0  0  0  0  0  0  0  0  0  0
   -2.3140    1.1550    0.0050 C   0  0  0  0  0  0  0  0  0  0  0  0
   -2.5580    2.1990    0.0130 H   0  0  0  0  0  0  0  0  0  0  0  0
   -3.1850    0.1270   -0.0030 C   0  0  0  0  0  0  0  0  0  0  0  0
   -4.9310    0.1050   -0.0030 Cl  0  0  0  0  0  0  0  0  0  0  0  0
   -2.3900   -1.4580   -0.0160 S   0  0  0  0  0  0  0  0  0  0  0  0
   -0.8280   -0.6380   -0.0100 C   0  0  0  0  0  0  0  0  0  0  0  0
    0.4570   -1.0450   -0.0130 N   0  0  0  0  0  0  0  0  0  0  0  0
    0.8650   -1.9880   -0.0200 H   0  0  0  0  0  0  0  0  0  0  0  0
  1  2  1  0  0  0  0
  2  3  2  0  0  0  0
  2  4  1  0  0  0  0
  4  5  2  0  0  0  0
  4 14  1  0  0  0  0
  5  6  1  0  0  0  0
  5  7  1  0  0  0  0
  7  8  1  0  0  0  0
  7 13  2  0  0  0  0
  8  9  1  0  0  0  0
  8 10  2  0  0  0  0
 10 11  1  0  0  0  0
 10 12  1  0  0  0  0
 12 13  1  0  0  0  0
 13 14  1  0  0  0  0
 14 15  1  0  0  0  0
M  CHG  1   1  -1
M  END
>  <Catalog ID>
Z1508918230

>  <a_acc>
0

>  <a_don>
1

>  <a_heavy>
12

>  <logP>
2.7750001

>  <logS>
-3.5213499

>  <TPSA>
55.919998

>  <Weight>
200.625

$$$$
Z56755653
  MOE2024           3D

 26 26  0  0  0  0  0  0  0  0999 V2000
    5.0690   -0.9820   -0.1690 N   0  3  0  0  0  0  0  0  0  0  0  0
    5.5630   -1.4670   -0.9290 H   0  0  0  0  0  0  0  0  0  0  0  0
    5.2680   -1.4890    0.7020 H   0  0  0  0  0  0  0  0  0  0  0  0
    5.4740   -0.0410   -0.0890 H   0  0  0  0  0  0  0  0  0  0  0  0
    3.6040   -0.9230   -0.4420 C   0  0  0  0  0  0  0  0  0  0  0  0
    3.2080   -1.9220   -0.5410 H   0  0  0  0  0  0  0  0  0  0  0  0
    3.4230   -0.4020   -1.3700 H   0  0  0  0  0  0  0  0  0  0  0  0
    2.8590   -0.2030    0.6850 C   0  0  0  0  0  0  0  0  0  0  0  0
    3.2160    0.8070    0.7850 H   0  0  0  0  0  0  0  0  0  0  0  0
    3.0110   -0.7140    1.6200 H   0  0  0  0  0  0  0  0  0  0  0  0
    1.3720   -0.1760    0.3740 C   0  0  0  0  0  0  0  0  0  0  0  0
    0.5500   -1.2170    0.7740 C   0  0  0  0  0  0  0  0  0  0  0  0
    0.9460   -2.0590    1.3170 H   0  0  0  0  0  0  0  0  0  0  0  0
   -0.8050   -1.1880    0.4890 C   0  0  0  0  0  0  0  0  0  0  0  0
   -1.4330   -2.0040    0.8100 H   0  0  0  0  0  0  0  0  0  0  0  0
   -1.3790   -0.1280   -0.2010 C   0  0  0  0  0  0  0  0  0  0  0  0
   -0.5420    0.9110   -0.5920 C   0  0  0  0  0  0  0  0  0  0  0  0
   -0.9610    1.7510   -1.1230 H   0  0  0  0  0  0  0  0  0  0  0  0
    0.8140    0.8920   -0.3110 C   0  0  0  0  0  0  0  0  0  0  0  0
    1.4200    1.7230   -0.6300 H   0  0  0  0  0  0  0  0  0  0  0  0
   -3.1630   -0.0880   -0.5500 S   0  0  0  0  0  0  0  0  0  0  0  0
   -3.8540    0.4550    0.8510 N   0  0  0  0  0  0  0  0  0  0  0  0
   -4.6000   -0.2170    1.0170 H   0  0  0  0  0  0  0  0  0  0  0  0
   -4.3100    1.3180    0.5650 H   0  0  0  0  0  0  0  0  0  0  0  0
   -3.5060    0.9490   -1.4910 O   0  0  0  0  0  0  0  0  0  0  0  0
   -3.7120   -1.4150   -0.6840 O   0  0  0  0  0  0  0  0  0  0  0  0
  1  2  1  0  0  0  0
  1  3  1  0  0  0  0
  1  4  1  0  0  0  0
  1  5  1  0  0  0  0
  5  6  1  0  0  0  0
  5  7  1  0  0  0  0
  5  8  1  0  0  0  0
  8  9  1  0  0  0  0
  8 10  1  0  0  0  0
  8 11  1  0  0  0  0
 11 12  1  0  0  0  0
 11 19  2  0  0  0  0
 12 13  1  0  0  0  0
 12 14  2  0  0  0  0
 14 15  1  0  0  0  0
 14 16  1  0  0  0  0
 16 17  2  0  0  0  0
 16 21  1  0  0  0  0
 17 18  1  0  0  0  0
 17 19  1  0  0  0  0
 19 20  1  0  0  0  0
 21 22  1  0  0  0  0
 21 25  2  0  0  0  0
 21 26  2  0  0  0  0
 22 23  1  0  0  0  0
 22 24  1  0  0  0  0
M  CHG  1   1   1
M  END
>  <Catalog ID>
Z56755653

>  <a_acc>
2

>  <a_don>
1

>  <a_heavy>
13

>  <logP>
-0.322

>  <logS>
-1.31349

>  <TPSA>
87.800003

>  <Weight>
201.27

$$$$
Z104474214
  MOE2024           3D

 19 19  0  0  0  0  0  0  0  0999 V2000
    3.7950   -2.1380    1.1650 O   0  5  0  0  0  0  0  0  0  0  0  0
    3.7220   -1.4270    0.1510 C   0  0  0  0  0  0  0  0  0  0  0  0
    4.1950   -1.8120   -0.9280 O   0  0  0  0  0  0  0  0  0  0  0  0
    3.0550   -0.0610    0.2390 C   0  0  0  0  0  0  0  0  0  0  0  0
    3.4960    0.5490   -0.5260 H   0  0  0  0  0  0  0  0  0  0  0  0
    3.3280    0.3660    1.1840 H   0  0  0  0  0  0  0  0  0  0  0  0
    1.5210    0.0030    0.0980 C   0  0  0  0  0  0  0  0  0  0  0  0
    0.8000   -1.1850    0.1270 C   0  0  0  0  0  0  0  0  0  0  0  0
    1.3080   -2.1240    0.2630 H   0  0  0  0  0  0  0  0  0  0  0  0
   -0.5740   -1.1980   -0.0190 C   0  0  0  0  0  0  0  0  0  0  0  0
   -1.1040   -2.1320    0.0050 H   0  0  0  0  0  0  0  0  0  0  0  0
   -1.2470   -0.0090   -0.1950 C   0  0  0  0  0  0  0  0  0  0  0  0
   -2.3140    0.0000   -0.3160 H   0  0  0  0  0  0  0  0  0  0  0  0
   -0.5400    1.1770   -0.2160 C   0  0  0  0  0  0  0  0  0  0  0  0
   -1.0760    2.1010   -0.3530 H   0  0  0  0  0  0  0  0  0  0  0  0
    0.8500    1.2340   -0.0620 C   0  0  0  0  0  0  0  0  0  0  0  0
    1.4760    2.5640   -0.0770 C   0  0  0  0  0  0  0  0  0  0  0  0
    2.5650    2.8140    0.4710 O   0  5  0  0  0  0  0  0  0  0  0  0
    0.8850    3.5230   -0.6170 O   0  0  0  0  0  0  0  0  0  0  0  0
  1  2  1  0  0  0  0
  2  3  2  0  0  0  0
  2  4  1  0  0  0  0
  4  5  1  0  0  0  0
  4  6  1  0  0  0  0
  4  7  1  0  0  0  0
  7  8  1  0  0  0  0
  7 16  2  0  0  0  0
  8  9  1  0  0  0  0
  8 10  2  0  0  0  0
 10 11  1  0  0  0  0
 10 12  1  0  0  0  0
 12 13  1  0  0  0  0
 12 14  2  0  0  0  0
 14 15  1  0  0  0  0
 14 16  1  0  0  0  0
 16 17  1  0  0  0  0
 17 18  1  0  0  0  0
 17 19  2  0  0  0  0
M  CHG  1   1  -1
M  CHG  1  18  -1
M  END
>  <Catalog ID>
Z104474214

>  <a_acc>
0

>  <a_don>
0

>  <a_heavy>
13

>  <logP>
1.5880001

>  <logS>
-1.90605

>  <TPSA>
80.260002

>  <Weight>
178.14299

$$$$
Z57040472
  MOE2024           3D

 23 24  0  0  0  0  0  0  0  0999 V2000
   -1.9090   -6.2850    1.1400 N   0  0  0  0  0  0  0  0  0  0  0  0
   -2.4010   -5.9410    1.9640 H   0  0  0  0  0  0  0  0  0  0  0  0
   -2.3130   -7.0810    0.6460 H   0  0  0  0  0  0  0  0  0  0  0  0
   -0.9510   -5.5520    0.5240 C   0  0  0  0  0  0  0  0  0  0  0  0
   -0.3960   -5.8130   -0.5970 N   0  0  0  0  0  0  0  0  0  0  0  0
    0.5330   -4.8400   -0.9180 C   0  0  0  0  0  0  0  0  0  0  0  0
    1.0660   -4.9540   -1.8470 H   0  0  0  0  0  0  0  0  0  0  0  0
    0.7000   -3.8280   -0.0510 C   0  0  0  0  0  0  0  0  0  0  0  0
    1.5900   -2.5990   -0.0330 C   0  0  0  0  0  0  0  0  0  0  0  0
    2.2540   -2.6270   -0.8780 H   0  0  0  0  0  0  0  0  0  0  0  0
    2.1920   -2.6160    0.8570 H   0  0  0  0  0  0  0  0  0  0  0  0
    0.7670   -1.3190   -0.0930 C   0  0  0  0  0  0  0  0  0  0  0  0
    0.7800   -0.4190    0.9620 C   0  0  0  0  0  0  0  0  0  0  0  0
    1.3680   -0.6190    1.8410 H   0  0  0  0  0  0  0  0  0  0  0  0
    0.0330    0.7450    0.8990 C   0  0  0  0  0  0  0  0  0  0  0  0
    0.0480    1.4380    1.7220 H   0  0  0  0  0  0  0  0  0  0  0  0
   -0.7330    1.0170   -0.2200 C   0  0  0  0  0  0  0  0  0  0  0  0
   -1.3140    1.9210   -0.2690 H   0  0  0  0  0  0  0  0  0  0  0  0
   -0.7530    0.1220   -1.2750 C   0  0  0  0  0  0  0  0  0  0  0  0
   -1.3510    0.3300   -2.1450 H   0  0  0  0  0  0  0  0  0  0  0  0
   -0.0060   -1.0410   -1.2110 C   0  0  0  0  0  0  0  0  0  0  0  0
   -0.0330   -1.7320   -2.0350 H   0  0  0  0  0  0  0  0  0  0  0  0
   -0.3800   -4.0830    1.2950 S   0  0  0  0  0  0  0  0  0  0  0  0
  1  2  1  0  0  0  0
  1  3  1  0  0  0  0
  1  4  1  0  0  0  0
  4  5  2  0  0  0  0
  4 23  1  0  0  0  0
  5  6  1  0  0  0  0
  6  7  1  0  0  0  0
  6  8  2  0  0  0  0
  8  9  1  0  0  0  0
  8 23  1  0  0  0  0
  9 10  1  0  0  0  0
  9 11  1  0  0  0  0
  9 12  1  0  0  0  0
 12 13  1  0  0  0  0
 12 21  2  0  0  0  0
 13 14  1  0  0  0  0
 13 15  2  0  0  0  0
 15 16  1  0  0  0  0
 15 17  1  0  0  0  0
 17 18  1  0  0  0  0
 17 19  2  0  0  0  0
 19 20  1  0  0  0  0
 19 21  1  0  0  0  0
 21 22  1  0  0  0  0
M  END
>  <Catalog ID>
Z57040472

>  <a_acc>
1

>  <a_don>
1

>  <a_heavy>
13

>  <logP>
2.141

>  <logS>
-2.53298

>  <TPSA>
38.91

>  <Weight>
190.27

$$$$
Z57984669
  MOE2024           3D

 23 24  0  0  0  0  0  0  0  0999 V2000
    4.5950   -4.4530    0.2180 C   0  0  0  0  0  0  0  0  0  0  0  0
    5.2240   -3.6360    0.5220 H   0  0  0  0  0  0  0  0  0  0  0  0
    4.9890   -4.8820   -0.6840 H   0  0  0  0  0  0  0  0  0  0  0  0
    4.5870   -5.1970    0.9930 H   0  0  0  0  0  0  0  0  0  0  0  0
    3.1910   -3.9500   -0.0230 C   0  0  0  0  0  0  0  0  0  0  0  0
    2.7520   -2.7640    0.0860 N   0  0  0  0  0  0  0  0  0  0  0  0
    1.3910   -2.6700   -0.2180 C   0  0  0  0  0  0  0  0  0  0  0  0
    0.8190   -3.8420   -0.5670 C   0  0  0  0  0  0  0  0  0  0  0  0
   -0.1840   -4.0940   -0.8560 H   0  0  0  0  0  0  0  0  0  0  0  0
    1.9930   -5.1200   -0.5170 S   0  0  0  0  0  0  0  0  0  0  0  0
    0.7290   -1.3780   -0.1390 C   0  0  0  0  0  0  0  0  0  0  0  0
    1.4440   -0.1850   -0.2360 C   0  0  0  0  0  0  0  0  0  0  0  0
    2.5120   -0.2220   -0.3660 H   0  0  0  0  0  0  0  0  0  0  0  0
    0.8100    1.0440   -0.1720 C   0  0  0  0  0  0  0  0  0  0  0  0
    1.3850    1.9490   -0.2540 H   0  0  0  0  0  0  0  0  0  0  0  0
   -0.5600    1.1040   -0.0040 C   0  0  0  0  0  0  0  0  0  0  0  0
   -1.0550    2.0560    0.0400 H   0  0  0  0  0  0  0  0  0  0  0  0
   -1.3010   -0.0630    0.1060 C   0  0  0  0  0  0  0  0  0  0  0  0
   -2.6700   -0.0070    0.2900 N   0  0  0  0  0  0  0  0  0  0  0  0
   -3.0960   -0.8140    0.7530 H   0  0  0  0  0  0  0  0  0  0  0  0
   -3.0380    0.8760    0.6550 H   0  0  0  0  0  0  0  0  0  0  0  0
   -0.6500   -1.2850    0.0340 C   0  0  0  0  0  0  0  0  0  0  0  0
   -1.2360   -2.1790    0.1180 H   0  0  0  0  0  0  0  0  0  0  0  0
  1  2  1  0  0  0  0
  1  3  1  0  0  0  0
  1  4  1  0  0  0  0
  1  5  1  0  0  0  0
  5  6  2  0  0  0  0
  5 10  1  0  0  0  0
  6  7  1  0  0  0  0
  7  8  2  0  0  0  0
  7 11  1  0  0  0  0
  8  9  1  0  0  0  0
  8 10  1  0  0  0  0
 11 12  1  0  0  0  0
 11 22  2  0  0  0  0
 12 13  1  0  0  0  0
 12 14  2  0  0  0  0
 14 15  1  0  0  0  0
 14 16  1  0  0  0  0
 16 17  1  0  0  0  0
 16 18  2  0  0  0  0
 18 19  1  0  0  0  0
 18 22  1  0  0  0  0
 19 20  1  0  0  0  0
 19 21  1  0  0  0  0
 22 23  1  0  0  0  0
M  END
>  <Catalog ID>
Z57984669

>  <a_acc>
1

>  <a_don>
1

>  <a_heavy>
13

>  <logP>
2.1370001

>  <logS>
-2.36286

>  <TPSA>
38.91

>  <Weight>
190.27

$$$$
Z56924437
  MOE2024           3D

 24 24  0  0  0  0  0  0  0  0999 V2000
    2.9200   -0.8320   -0.6320 C   0  0  0  0  0  0  0  0  0  0  0  0
    2.9850   -1.9020   -0.7020 H   0  0  0  0  0  0  0  0  0  0  0  0
    3.6040   -0.4890    0.1220 H   0  0  0  0  0  0  0  0  0  0  0  0
    3.2090   -0.4060   -1.5760 H   0  0  0  0  0  0  0  0  0  0  0  0
    1.5080   -0.3870   -0.2830 C   0  0  0  0  0  0  0  0  0  0  0  0
    0.5410   -1.3240    0.0430 C   0  0  0  0  0  0  0  0  0  0  0  0
    0.7840   -2.3710    0.0560 H   0  0  0  0  0  0  0  0  0  0  0  0
   -0.7470   -0.9200    0.3540 C   0  0  0  0  0  0  0  0  0  0  0  0
   -1.4920   -1.6520    0.6070 H   0  0  0  0  0  0  0  0  0  0  0  0
   -1.0770    0.4240    0.3350 C   0  0  0  0  0  0  0  0  0  0  0  0
   -2.0800    0.7270    0.5740 H   0  0  0  0  0  0  0  0  0  0  0  0
   -0.1250    1.3760    0.0100 C   0  0  0  0  0  0  0  0  0  0  0  0
   -0.5100    2.8500   -0.0210 C   0  0  0  0  0  0  0  0  0  0  0  0
   -1.5710    2.9730   -0.1280 H   0  0  0  0  0  0  0  0  0  0  0  0
   -0.0260    3.3450   -0.8450 H   0  0  0  0  0  0  0  0  0  0  0  0
   -0.1930    3.3320    0.8870 H   0  0  0  0  0  0  0  0  0  0  0  0
    1.1720    0.9640   -0.2870 C   0  0  0  0  0  0  0  0  0  0  0  0
    2.1190    1.8790   -0.5980 O   0  0  0  0  0  0  0  0  0  0  0  0
    2.7270    2.5660    0.4970 C   0  0  0  0  0  0  0  0  0  0  0  0
    3.6580    2.0820    0.7120 H   0  0  0  0  0  0  0  0  0  0  0  0
    2.0850    2.4990    1.3540 H   0  0  0  0  0  0  0  0  0  0  0  0
    2.9930    4.0400    0.2200 C   0  0  0  0  0  0  0  0  0  0  0  0
    2.0860    4.8640    0.4080 O   0  5  0  0  0  0  0  0  0  0  0  0
    4.1340    4.3900   -0.1100 O   0  0  0  0  0  0  0  0  0  0  0  0
  1  2  1  0  0  0  0
  1  3  1  0  0  0  0
  1  4  1  0  0  0  0
  1  5  1  0  0  0  0
  5  6  1  0  0  0  0
  5 17  2  0  0  0  0
  6  7  1  0  0  0  0
  6  8  2  0  0  0  0
  8  9  1  0  0  0  0
  8 10  1  0  0  0  0
 10 11  1  0  0  0  0
 10 12  2  0  0  0  0
 12 13  1  0  0  0  0
 12 17  1  0  0  0  0
 13 14  1  0  0  0  0
 13 15  1  0  0  0  0
 13 16  1  0  0  0  0
 17 18  1  0  0  0  0
 18 19  1  0  0  0  0
 19 20  1  0  0  0  0
 19 21  1  0  0  0  0
 19 22  1  0  0  0  0
 22 23  1  0  0  0  0
 22 24  2  0  0  0  0
M  CHG  1  23  -1
M  END
>  <Catalog ID>
Z56924437

>  <a_acc>
1

>  <a_don>
0

>  <a_heavy>
13

>  <logP>
2.0799999

>  <logS>
-2.01249

>  <TPSA>
49.360001

>  <Weight>
179.19499

$$$$
Z119989628
  MOE2024           3D

 21 22  0  0  0  0  0  0  0  0999 V2000
    2.7660    0.1230    0.0000 C   0  0  0  0  0  0  0  0  0  0  0  0
    3.1730   -0.8710   -0.0010 H   0  0  0  0  0  0  0  0  0  0  0  0
    3.1190    0.6390    0.8740 H   0  0  0  0  0  0  0  0  0  0  0  0
    3.1190    0.6390   -0.8750 H   0  0  0  0  0  0  0  0  0  0  0  0
    1.2490    0.0930    0.0000 C   0  0  0  0  0  0  0  0  0  0  0  0
    0.5690   -1.1350   -0.0010 C   0  0  0  0  0  0  0  0  0  0  0  0
    1.1310   -2.0510   -0.0020 H   0  0  0  0  0  0  0  0  0  0  0  0
   -0.8060   -1.1800   -0.0010 C   0  0  0  0  0  0  0  0  0  0  0  0
   -1.3390   -2.1120   -0.0010 H   0  0  0  0  0  0  0  0  0  0  0  0
   -1.5370    0.0120    0.0010 C   0  0  0  0  0  0  0  0  0  0  0  0
   -2.9110    0.3250    0.0010 C   0  0  0  0  0  0  0  0  0  0  0  0
   -3.7130   -0.3910    0.0010 H   0  0  0  0  0  0  0  0  0  0  0  0
   -3.0460    1.6830    0.0020 C   0  0  0  0  0  0  0  0  0  0  0  0
   -1.7940    2.2290    0.0020 N   0  0  0  0  0  0  0  0  0  0  0  0
   -1.6510    3.2470    0.0030 H   0  0  0  0  0  0  0  0  0  0  0  0
   -0.8590    1.2260    0.0010 C   0  0  0  0  0  0  0  0  0  0  0  0
    0.5370    1.2710    0.0010 C   0  0  0  0  0  0  0  0  0  0  0  0
    1.0310    2.2250    0.0020 H   0  0  0  0  0  0  0  0  0  0  0  0
   -4.1930    2.5510    0.0040 C   0  0  0  0  0  0  0  0  0  0  0  0
   -5.3470    2.0950    0.0040 O   0  5  0  0  0  0  0  0  0  0  0  0
   -4.0080    3.7820    0.0050 O   0  0  0  0  0  0  0  0  0  0  0  0
  1  2  1  0  0  0  0
  1  3  1  0  0  0  0
  1  4  1  0  0  0  0
  1  5  1  0  0  0  0
  5  6  1  0  0  0  0
  5 17  2  0  0  0  0
  6  7  1  0  0  0  0
  6  8  2  0  0  0  0
  8  9  1  0  0  0  0
  8 10  1  0  0  0  0
 10 11  1  0  0  0  0
 10 16  2  0  0  0  0
 11 12  1  0  0  0  0
 11 13  2  0  0  0  0
 13 14  1  0  0  0  0
 13 19  1  0  0  0  0
 14 15  1  0  0  0  0
 14 16  1  0  0  0  0
 16 17  1  0  0  0  0
 17 18  1  0  0  0  0
 19 20  1  0  0  0  0
 19 21  2  0  0  0  0
M  CHG  1  20  -1
M  END
>  <Catalog ID>
Z119989628

>  <a_acc>
0

>  <a_don>
1

>  <a_heavy>
13

>  <logP>
2.4059999

>  <logS>
-2.5314701

>  <TPSA>
55.919998

>  <Weight>
174.179

$$$$
Z57042001
  MOE2024           3D

 21 21  0  0  0  0  0  0  0  0999 V2000
    5.1260   -0.9050    0.1440 C   0  0  0  0  0  0  0  0  0  0  0  0
    5.2730    0.1330   -0.0860 H   0  0  0  0  0  0  0  0  0  0  0  0
    5.5870   -1.5040   -0.6190 H   0  0  0  0  0  0  0  0  0  0  0  0
    5.5920   -1.1280    1.0860 H   0  0  0  0  0  0  0  0  0  0  0  0
    3.6590   -1.2500    0.2240 C   0  0  0  0  0  0  0  0  0  0  0  0
    3.3690   -2.3920    0.4690 O   0  0  0  0  0  0  0  0  0  0  0  0
    2.7610   -0.2410    0.0170 N   0  0  0  0  0  0  0  0  0  0  0  0
    3.1830    0.6680   -0.1490 H   0  0  0  0  0  0  0  0  0  0  0  0
    1.3580   -0.2110    0.0070 C   0  0  0  0  0  0  0  0  0  0  0  0
    0.5530   -1.3440    0.0700 C   0  0  0  0  0  0  0  0  0  0  0  0
    0.9930   -2.3200    0.1340 H   0  0  0  0  0  0  0  0  0  0  0  0
   -0.8250   -1.2400    0.0490 C   0  0  0  0  0  0  0  0  0  0  0  0
   -1.4330   -2.1280    0.0990 H   0  0  0  0  0  0  0  0  0  0  0  0
   -1.4700   -0.0040   -0.0360 C   0  0  0  0  0  0  0  0  0  0  0  0
   -0.6510    1.1250   -0.0990 C   0  0  0  0  0  0  0  0  0  0  0  0
   -1.1240    2.0910   -0.1650 H   0  0  0  0  0  0  0  0  0  0  0  0
    0.7270    1.0250   -0.0780 C   0  0  0  0  0  0  0  0  0  0  0  0
    1.3100    1.9240   -0.1280 H   0  0  0  0  0  0  0  0  0  0  0  0
   -2.9230    0.1050   -0.0590 C   0  0  0  0  0  0  0  0  0  0  0  0
   -3.6410   -0.9100   -0.0040 O   0  5  0  0  0  0  0  0  0  0  0  0
   -3.4730    1.2200   -0.1350 O   0  0  0  0  0  0  0  0  0  0  0  0
  1  2  1  0  0  0  0
  1  3  1  0  0  0  0
  1  4  1  0  0  0  0
  1  5  1  0  0  0  0
  5  6  2  0  0  0  0
  5  7  1  0  0  0  0
  7  8  1  0  0  0  0
  7  9  1  0  0  0  0
  9 10  1  0  0  0  0
  9 17  2  0  0  0  0
 10 11  1  0  0  0  0
 10 12  2  0  0  0  0
 12 13  1  0  0  0  0
 12 14  1  0  0  0  0
 14 15  2  0  0  0  0
 14 19  1  0  0  0  0
 15 16  1  0  0  0  0
 15 17  1  0  0  0  0
 17 18  1  0  0  0  0
 19 20  1  0  0  0  0
 19 21  2  0  0  0  0
M  CHG  1  20  -1
M  END
>  <Catalog ID>
Z57042001

>  <a_acc>
1

>  <a_don>
1

>  <a_heavy>
13

>  <logP>
0.995

>  <logS>
-1.82418

>  <TPSA>
69.230003

>  <Weight>
178.16699

$$$$
Z838909446
  MOE2024           3D

 19 20  0  0  0  0  0  0  0  0999 V2000
   -0.7450   -6.0890    0.0040 O   0  5  0  0  0  0  0  0  0  0  0  0
   -1.4200   -5.0450    0.0010 C   0  0  0  0  0  0  0  0  0  0  0  0
   -2.6610   -5.1320   -0.0040 O   0  0  0  0  0  0  0  0  0  0  0  0
   -0.7770   -3.7480    0.0040 C   0  0  0  0  0  0  0  0  0  0  0  0
    0.6300   -3.6710    0.0100 C   0  0  0  0  0  0  0  0  0  0  0  0
    1.1650   -4.6080    0.0120 H   0  0  0  0  0  0  0  0  0  0  0  0
    1.3260   -2.5710    0.0130 N   0  0  0  0  0  0  0  0  0  0  0  0
    0.6370   -1.4020    0.0110 C   0  0  0  0  0  0  0  0  0  0  0  0
    1.3490   -0.1920    0.0150 C   0  0  0  0  0  0  0  0  0  0  0  0
    2.4210   -0.2540    0.0200 H   0  0  0  0  0  0  0  0  0  0  0  0
    0.7090    1.0200    0.0130 C   0  0  0  0  0  0  0  0  0  0  0  0
    1.2690    1.9390    0.0160 H   0  0  0  0  0  0  0  0  0  0  0  0
   -0.6890    1.0680    0.0060 C   0  0  0  0  0  0  0  0  0  0  0  0
   -1.1820    2.0250    0.0050 H   0  0  0  0  0  0  0  0  0  0  0  0
   -1.4130   -0.0940    0.0020 C   0  0  0  0  0  0  0  0  0  0  0  0
   -2.4880   -0.0730   -0.0030 H   0  0  0  0  0  0  0  0  0  0  0  0
   -0.7730   -1.3500    0.0040 C   0  0  0  0  0  0  0  0  0  0  0  0
   -1.4720   -2.5650    0.0010 C   0  0  0  0  0  0  0  0  0  0  0  0
   -2.5490   -2.5720   -0.0040 H   0  0  0  0  0  0  0  0  0  0  0  0
  1  2  1  0  0  0  0
  2  3  2  0  0  0  0
  2  4  1  0  0  0  0
  4  5  1  0  0  0  0
  4 18  2  0  0  0  0
  5  6  1  0  0  0  0
  5  7  2  0  0  0  0
  7  8  1  0  0  0  0
  8  9  1  0  0  0  0
  8 17  2  0  0  0  0
  9 10  1  0  0  0  0
  9 11  2  0  0  0  0
 11 12  1  0  0  0  0
 11 13  1  0  0  0  0
 13 14  1  0  0  0  0
 13 15  2  0  0  0  0
 15 16  1  0  0  0  0
 15 17  1  0  0  0  0
 17 18  1  0  0  0  0
 18 19  1  0  0  0  0
M  CHG  1   1  -1
M  END
>  <Catalog ID>
Z838909446

>  <a_acc>
1

>  <a_don>
0

>  <a_heavy>
13

>  <logP>
1.942

>  <logS>
-2.20327

>  <TPSA>
53.02

>  <Weight>
172.16299

$$$$
Z1198233123
  MOE2024           3D

 24 25  0  0  0  0  0  0  0  0999 V2000
   -2.8880   -4.5470   -0.0090 C   0  0  0  0  0  0  0  0  0  0  0  0
   -2.0110   -5.1620   -0.0130 H   0  0  0  0  0  0  0  0  0  0  0  0
   -3.4730   -4.7690   -0.8820 H   0  0  0  0  0  0  0  0  0  0  0  0
   -3.4700   -4.7760    0.8640 H   0  0  0  0  0  0  0  0  0  0  0  0
   -2.5510   -3.0690   -0.0040 C   0  0  0  0  0  0  0  0  0  0  0  0
   -3.4990   -2.3230   -0.0010 O   0  0  0  0  0  0  0  0  0  0  0  0
   -1.1780   -2.6360   -0.0030 C   0  0  0  0  0  0  0  0  0  0  0  0
   -0.0250   -3.3820   -0.0030 C   0  0  0  0  0  0  0  0  0  0  0  0
    0.0770   -4.4520   -0.0040 H   0  0  0  0  0  0  0  0  0  0  0  0
    1.0650   -2.5810   -0.0020 N   0  0  0  0  0  0  0  0  0  0  0  0
    2.0480   -2.8720   -0.0020 H   0  0  0  0  0  0  0  0  0  0  0  0
    0.6480   -1.2770   -0.0010 C   0  0  0  0  0  0  0  0  0  0  0  0
    1.3850   -0.0860    0.0000 C   0  0  0  0  0  0  0  0  0  0  0  0
    2.9050   -0.0810    0.0000 C   0  0  0  0  0  0  0  0  0  0  0  0
    3.3060   -1.0770    0.0000 H   0  0  0  0  0  0  0  0  0  0  0  0
    3.2650    0.4310    0.8750 H   0  0  0  0  0  0  0  0  0  0  0  0
    3.2640    0.4320   -0.8730 H   0  0  0  0  0  0  0  0  0  0  0  0
    0.6950    1.1050    0.0010 C   0  0  0  0  0  0  0  0  0  0  0  0
    1.2250    2.0410    0.0020 H   0  0  0  0  0  0  0  0  0  0  0  0
   -0.7030    1.1250    0.0010 C   0  0  0  0  0  0  0  0  0  0  0  0
   -1.2150    2.0700    0.0020 H   0  0  0  0  0  0  0  0  0  0  0  0
   -1.4180   -0.0500    0.0000 C   0  0  0  0  0  0  0  0  0  0  0  0
   -2.4930   -0.0370    0.0000 H   0  0  0  0  0  0  0  0  0  0  0  0
   -0.7440   -1.2760   -0.0010 C   0  0  0  0  0  0  0  0  0  0  0  0
  1  2  1  0  0  0  0
  1  3  1  0  0  0  0
  1  4  1  0  0  0  0
  1  5  1  0  0  0  0
  5  6  2  0  0  0  0
  5  7  1  0  0  0  0
  7  8  2  0  0  0  0
  7 24  1  0  0  0  0
  8  9  1  0  0  0  0
  8 10  1  0  0  0  0
 10 11  1  0  0  0  0
 10 12  1  0  0  0  0
 12 13  1  0  0  0  0
 12 24  2  0  0  0  0
 13 14  1  0  0  0  0
 13 18  2  0  0  0  0
 14 15  1  0  0  0  0
 14 16  1  0  0  0  0
 14 17  1  0  0  0  0
 18 19  1  0  0  0  0
 18 20  1  0  0  0  0
 20 21  1  0  0  0  0
 20 22  2  0  0  0  0
 22 23  1  0  0  0  0
 22 24  1  0  0  0  0
M  END
>  <Catalog ID>
Z1198233123

>  <a_acc>
1

>  <a_don>
1

>  <a_heavy>
13

>  <logP>
2.421

>  <logS>
-2.1475201

>  <TPSA>
32.860001

>  <Weight>
173.215

$$$$
Z57326449
  MOE2024           3D

 34 36  0  0  0  0  0  0  0  0999 V2000
   -0.3980    3.3260    1.2180 C   0  0  0  0  0  0  0  0  0  0  0  0
   -0.0550    4.0630    1.9260 H   0  0  0  0  0  0  0  0  0  0  0  0
    0.5160    2.3910    0.7490 C   0  0  0  0  0  0  0  0  0  0  0  0
    1.5440    2.3850    1.0690 H   0  0  0  0  0  0  0  0  0  0  0  0
    0.0710    1.4460   -0.1540 C   0  0  0  0  0  0  0  0  0  0  0  0
    0.7600    0.4610   -0.7350 O   0  0  0  0  0  0  0  0  0  0  0  0
   -0.1570   -0.2450   -1.5690 C   0  0  0  0  0  0  0  0  0  0  0  0
   -0.2500   -1.2600   -1.2250 H   0  0  0  0  0  0  0  0  0  0  0  0
    0.1740   -0.2000   -2.5920 H   0  0  0  0  0  0  0  0  0  0  0  0
   -1.4130    0.4230   -1.4390 O   0  0  0  0  0  0  0  0  0  0  0  0
   -1.2260    1.4220   -0.5740 C   0  0  0  0  0  0  0  0  0  0  0  0
   -2.1520    2.3390   -0.1200 C   0  0  0  0  0  0  0  0  0  0  0  0
   -3.1650    2.2730   -0.4750 H   0  0  0  0  0  0  0  0  0  0  0  0
   -1.7250    3.3070    0.7850 C   0  0  0  0  0  0  0  0  0  0  0  0
   -2.7050    4.3420    1.2860 C   0  0  0  0  0  0  0  0  0  0  0  0
   -2.3830    4.7320    2.2370 H   0  0  0  0  0  0  0  0  0  0  0  0
   -3.6800    3.8950    1.4010 H   0  0  0  0  0  0  0  0  0  0  0  0
   -2.7360    5.4100    0.2680 N   0  3  0  0  0  0  0  0  0  0  0  0
   -2.9670    4.9910   -0.6390 H   0  0  0  0  0  0  0  0  0  0  0  0
   -1.7900    5.7890    0.1680 H   0  0  0  0  0  0  0  0  0  0  0  0
   -3.6950    6.4960    0.5280 C   0  0  0  0  0  0  0  0  0  0  0  0
   -3.5910    6.8810    1.5310 H   0  0  0  0  0  0  0  0  0  0  0  0
   -5.1100    6.0110    0.2230 C   0  0  0  0  0  0  0  0  0  0  0  0
   -5.8040    6.7100    0.6590 H   0  0  0  0  0  0  0  0  0  0  0  0
   -5.3360    5.0360    0.6170 H   0  0  0  0  0  0  0  0  0  0  0  0
   -5.2550    6.0770   -1.3020 C   0  0  0  0  0  0  0  0  0  0  0  0
   -6.2490    6.3910   -1.5780 H   0  0  0  0  0  0  0  0  0  0  0  0
   -5.0710    5.1120   -1.7450 H   0  0  0  0  0  0  0  0  0  0  0  0
   -4.2040    7.0850   -1.7850 C   0  0  0  0  0  0  0  0  0  0  0  0
   -4.6650    7.9090   -2.3040 H   0  0  0  0  0  0  0  0  0  0  0  0
   -3.5140    6.6040   -2.4590 H   0  0  0  0  0  0  0  0  0  0  0  0
   -3.4760    7.5740   -0.5250 C   0  0  0  0  0  0  0  0  0  0  0  0
   -2.4380    7.7940   -0.7040 H   0  0  0  0  0  0  0  0  0  0  0  0
   -3.9560    8.4770   -0.1860 H   0  0  0  0  0  0  0  0  0  0  0  0
  1  2  1  0  0  0  0
  1  3  1  0  0  0  0
  1 14  2  0  0  0  0
  3  4  1  0  0  0  0
  3  5  2  0  0  0  0
  5  6  1  0  0  0  0
  5 11  1  0  0  0  0
  6  7  1  0  0  0  0
  7  8  1  0  0  0  0
  7  9  1  0  0  0  0
  7 10  1  0  0  0  0
 10 11  1  0  0  0  0
 11 12  2  0  0  0  0
 12 13  1  0  0  0  0
 12 14  1  0  0  0  0
 14 15  1  0  0  0  0
 15 16  1  0  0  0  0
 15 17  1  0  0  0  0
 15 18  1  0  0  0  0
 18 19  1  0  0  0  0
 18 20  1  0  0  0  0
 18 21  1  0  0  0  0
 21 22  1  0  0  0  0
 21 23  1  0  0  0  0
 21 32  1  0  0  0  0
 23 24  1  0  0  0  0
 23 25  1  0  0  0  0
 23 26  1  0  0  0  0
 26 27  1  0  0  0  0
 26 28  1  0  0  0  0
 26 29  1  0  0  0  0
 29 30  1  0  0  0  0
 29 31  1  0  0  0  0
 29 32  1  0  0  0  0
 32 33  1  0  0  0  0
 32 34  1  0  0  0  0
M  CHG  1  18   1
M  END
>  <Catalog ID>
Z57326449

>  <a_acc>
2

>  <a_don>
0

>  <a_heavy>
16

>  <logP>
2.9289999

>  <logS>
-2.0120101

>  <TPSA>
35.07

>  <Weight>
220.29199

$$$$
Z361423098
  MOE2024           3D

 29 31  0  0  0  0  0  0  0  0999 V2000
    2.3050   -0.1470   -1.1250 N   0  0  0  0  0  0  0  0  0  0  0  0
    2.6470    0.5860   -1.7540 H   0  0  0  0  0  0  0  0  0  0  0  0
    3.0340   -0.4730   -0.4850 H   0  0  0  0  0  0  0  0  0  0  0  0
    1.0480    0.0460   -0.5830 C   0  0  0  0  0  0  0  0  0  0  0  0
    0.6860   -0.6230    0.5960 C   0  0  0  0  0  0  0  0  0  0  0  0
    1.3970   -1.2870    1.0540 H   0  0  0  0  0  0  0  0  0  0  0  0
   -0.5590   -0.4460    1.1680 C   0  0  0  0  0  0  0  0  0  0  0  0
   -0.8510   -0.9510    2.0710 H   0  0  0  0  0  0  0  0  0  0  0  0
   -1.4610    0.4120    0.5500 C   0  0  0  0  0  0  0  0  0  0  0  0
   -2.7310    0.7740    0.8790 N   0  0  0  0  0  0  0  0  0  0  0  0
   -3.0590    1.5890   -0.0530 C   0  0  0  0  0  0  0  0  0  0  0  0
   -4.3870    2.3090   -0.1930 C   0  0  0  0  0  0  0  0  0  0  0  0
   -5.0690    1.9260    0.5440 H   0  0  0  0  0  0  0  0  0  0  0  0
   -4.7950    2.0930   -1.1620 H   0  0  0  0  0  0  0  0  0  0  0  0
   -4.2380    3.8140    0.0010 C   0  0  0  0  0  0  0  0  0  0  0  0
   -3.8810    4.3170    1.2430 C   0  0  0  0  0  0  0  0  0  0  0  0
   -3.7010    3.6460    2.0660 H   0  0  0  0  0  0  0  0  0  0  0  0
   -3.7470    5.6810    1.4340 C   0  0  0  0  0  0  0  0  0  0  0  0
   -3.4680    6.0630    2.4010 H   0  0  0  0  0  0  0  0  0  0  0  0
   -3.9700    6.5520    0.3830 C   0  0  0  0  0  0  0  0  0  0  0  0
   -3.8660    7.6130    0.5310 H   0  0  0  0  0  0  0  0  0  0  0  0
   -4.3240    6.0570   -0.8600 C   0  0  0  0  0  0  0  0  0  0  0  0
   -4.4950    6.7340   -1.6780 H   0  0  0  0  0  0  0  0  0  0  0  0
   -4.4570    4.6920   -1.0500 C   0  0  0  0  0  0  0  0  0  0  0  0
   -4.7290    4.3220   -2.0230 H   0  0  0  0  0  0  0  0  0  0  0  0
   -2.1300    1.7990   -0.9770 O   0  0  0  0  0  0  0  0  0  0  0  0
   -1.1020    1.0590   -0.6060 C   0  0  0  0  0  0  0  0  0  0  0  0
    0.1410    0.8950   -1.1950 C   0  0  0  0  0  0  0  0  0  0  0  0
    0.3800    1.4170   -2.1020 H   0  0  0  0  0  0  0  0  0  0  0  0
  1  2  1  0  0  0  0
  1  3  1  0  0  0  0
  1  4  1  0  0  0  0
  4  5  1  0  0  0  0
  4 28  2  0  0  0  0
  5  6  1  0  0  0  0
  5  7  2  0  0  0  0
  7  8  1  0  0  0  0
  7  9  1  0  0  0  0
  9 10  1  0  0  0  0
  9 27  2  0  0  0  0
 10 11  2  0  0  0  0
 11 12  1  0  0  0  0
 11 26  1  0  0  0  0
 12 13  1  0  0  0  0
 12 14  1  0  0  0  0
 12 15  1  0  0  0  0
 15 16  1  0  0  0  0
 15 24  2  0  0  0  0
 16 17  1  0  0  0  0
 16 18  2  0  0  0  0
 18 19  1  0  0  0  0
 18 20  1  0  0  0  0
 20 21  1  0  0  0  0
 20 22  2  0  0  0  0
 22 23  1  0  0  0  0
 22 24  1  0  0  0  0
 24 25  1  0  0  0  0
 26 27  1  0  0  0  0
 27 28  1  0  0  0  0
 28 29  1  0  0  0  0
M  END
>  <Catalog ID>
Z361423098

>  <a_acc>
1

>  <a_don>
1

>  <a_heavy>
17

>  <logP>
2.7980001

>  <logS>
-3.3705201

>  <TPSA>
52.049999

>  <Weight>
224.263

$$$$
Z1267773750
  MOE2024           3D

 18 18  0  0  0  0  0  0  0  0999 V2000
    4.9690   -1.2630    0.2090 N   0  3  0  0  0  0  0  0  0  0  0  0
    5.4140   -1.9890    0.7840 H   0  0  0  0  0  0  0  0  0  0  0  0
    5.3300   -0.3540    0.5260 H   0  0  0  0  0  0  0  0  0  0  0  0
    5.2690   -1.4060   -0.7620 H   0  0  0  0  0  0  0  0  0  0  0  0
    3.4860   -1.3260    0.3400 C   0  0  0  0  0  0  0  0  0  0  0  0
    3.2060   -1.1850    1.3730 H   0  0  0  0  0  0  0  0  0  0  0  0
    3.1270   -2.2950    0.0310 H   0  0  0  0  0  0  0  0  0  0  0  0
    2.8030   -0.2450   -0.5050 C   0  0  0  0  0  0  0  0  0  0  0  0
    2.9790   -0.4040   -1.5550 H   0  0  0  0  0  0  0  0  0  0  0  0
    3.1830    0.7240   -0.2320 H   0  0  0  0  0  0  0  0  0  0  0  0
    1.3130   -0.2640   -0.2250 C   0  0  0  0  0  0  0  0  0  0  0  0
    0.6280    0.3880    0.7430 C   0  0  0  0  0  0  0  0  0  0  0  0
    1.0040    1.0600    1.4990 H   0  0  0  0  0  0  0  0  0  0  0  0
   -0.6820    0.1040    0.6830 N   0  0  0  0  0  0  0  0  0  0  0  0
   -0.7840   -0.6980   -0.3250 C   0  0  0  0  0  0  0  0  0  0  0  0
   -1.7140   -1.1200   -0.6680 H   0  0  0  0  0  0  0  0  0  0  0  0
    0.3940   -0.9640   -0.9260 N   0  0  0  0  0  0  0  0  0  0  0  0
    0.5160   -1.5560   -1.7540 H   0  0  0  0  0  0  0  0  0  0  0  0
  1  2  1  0  0  0  0
  1  3  1  0  0  0  0
  1  4  1  0  0  0  0
  1  5  1  0  0  0  0
  5  6  1  0  0  0  0
  5  7  1  0  0  0  0
  5  8  1  0  0  0  0
  8  9  1  0  0  0  0
  8 10  1  0  0  0  0
  8 11  1  0  0  0  0
 11 12  2  0  0  0  0
 11 17  1  0  0  0  0
 12 13  1  0  0  0  0
 12 14  1  0  0  0  0
 14 15  2  0  0  0  0
 15 16  1  0  0  0  0
 15 17  1  0  0  0  0
 17 18  1  0  0  0  0
M  CHG  1   1   1
M  END
>  <Catalog ID>
Z1267773750

>  <a_acc>
2

>  <a_don>
2

>  <a_heavy>
8

>  <logP>
-1.054

>  <logS>
0.15598001

>  <TPSA>
56.32

>  <Weight>
112.156

$$$$
Z104478032
  MOE2024           3D

 16 16  0  0  0  0  0  0  0  0999 V2000
    3.4020   -1.0130   -0.7180 O   0  0  0  0  0  0  0  0  0  0  0  0
    2.8450   -1.0090   -1.5210 H   0  0  0  0  0  0  0  0  0  0  0  0
    2.9290   -0.0550    0.1540 C   0  0  0  0  0  0  0  0  0  0  0  0
    3.3600    0.8930   -0.1180 H   0  0  0  0  0  0  0  0  0  0  0  0
    3.2430   -0.3190    1.1500 H   0  0  0  0  0  0  0  0  0  0  0  0
    1.4150   -0.0300    0.0370 C   0  0  0  0  0  0  0  0  0  0  0  0
    0.6620   -1.0790    0.5490 C   0  0  0  0  0  0  0  0  0  0  0  0
    1.1540   -1.9110    1.0250 H   0  0  0  0  0  0  0  0  0  0  0  0
   -0.7190   -1.0630    0.4480 C   0  0  0  0  0  0  0  0  0  0  0  0
   -1.3110   -1.8700    0.8420 H   0  0  0  0  0  0  0  0  0  0  0  0
   -1.3380    0.0060   -0.1700 C   0  0  0  0  0  0  0  0  0  0  0  0
   -3.0770    0.0300   -0.3010 Cl  0  0  0  0  0  0  0  0  0  0  0  0
   -0.6040    1.0580   -0.6870 C   0  0  0  0  0  0  0  0  0  0  0  0
   -1.1110    1.8780   -1.1630 H   0  0  0  0  0  0  0  0  0  0  0  0
    0.7770    1.0370   -0.5820 C   0  0  0  0  0  0  0  0  0  0  0  0
    1.3490    1.8560   -0.9840 H   0  0  0  0  0  0  0  0  0  0  0  0
  1  2  1  0  0  0  0
  1  3  1  0  0  0  0
  3  4  1  0  0  0  0
  3  5  1  0  0  0  0
  3  6  1  0  0  0  0
  6  7  1  0  0  0  0
  6 15  2  0  0  0  0
  7  8  1  0  0  0  0
  7  9  2  0  0  0  0
  9 10  1  0  0  0  0
  9 11  1  0  0  0  0
 11 12  1  0  0  0  0
 11 13  2  0  0  0  0
 13 14  1  0  0  0  0
 13 15  1  0  0  0  0
 15 16  1  0  0  0  0
M  END
>  <Catalog ID>
Z104478032

>  <a_acc>
1

>  <a_don>
1

>  <a_heavy>
9

>  <logP>
1.976

>  <logS>
-1.89019

>  <TPSA>
20.23

>  <Weight>
142.58499

$$$$
Z104479728
  MOE2024           3D

 19 19  0  0  0  0  0  0  0  0999 V2000
    3.6220   -1.3020   -0.0140 C   0  0  0  0  0  0  0  0  0  0  0  0
    4.6860   -1.1470   -0.0150 H   0  0  0  0  0  0  0  0  0  0  0  0
    3.3590   -1.8630   -0.8930 H   0  0  0  0  0  0  0  0  0  0  0  0
    3.3620   -1.8700    0.8620 H   0  0  0  0  0  0  0  0  0  0  0  0
    2.8990    0.0500   -0.0070 C   0  0  0  0  0  0  0  0  0  0  0  0
    3.2110    0.6080   -0.8730 H   0  0  0  0  0  0  0  0  0  0  0  0
    3.2140    0.6010    0.8630 H   0  0  0  0  0  0  0  0  0  0  0  0
    1.3730   -0.0200   -0.0040 C   0  0  0  0  0  0  0  0  0  0  0  0
    0.6550   -1.2120   -0.0070 C   0  0  0  0  0  0  0  0  0  0  0  0
    1.1580   -2.1610   -0.0110 H   0  0  0  0  0  0  0  0  0  0  0  0
   -0.7300   -1.2020   -0.0040 C   0  0  0  0  0  0  0  0  0  0  0  0
   -1.2690   -2.1310   -0.0060 H   0  0  0  0  0  0  0  0  0  0  0  0
   -1.4070    0.0050    0.0010 C   0  0  0  0  0  0  0  0  0  0  0  0
   -2.7480    0.0290    0.0040 O   0  0  0  0  0  0  0  0  0  0  0  0
   -3.1430   -0.8600    0.0020 H   0  0  0  0  0  0  0  0  0  0  0  0
   -0.7080    1.1970    0.0040 C   0  0  0  0  0  0  0  0  0  0  0  0
   -1.2480    2.1260    0.0080 H   0  0  0  0  0  0  0  0  0  0  0  0
    0.6750    1.1800    0.0010 C   0  0  0  0  0  0  0  0  0  0  0  0
    1.2100    2.1140    0.0030 H   0  0  0  0  0  0  0  0  0  0  0  0
  1  2  1  0  0  0  0
  1  3  1  0  0  0  0
  1  4  1  0  0  0  0
  1  5  1  0  0  0  0
  5  6  1  0  0  0  0
  5  7  1  0  0  0  0
  5  8  1  0  0  0  0
  8  9  1  0  0  0  0
  8 18  2  0  0  0  0
  9 10  1  0  0  0  0
  9 11  2  0  0  0  0
 11 12  1  0  0  0  0
 11 13  1  0  0  0  0
 13 14  1  0  0  0  0
 13 16  2  0  0  0  0
 14 15  1  0  0  0  0
 16 17  1  0  0  0  0
 16 18  1  0  0  0  0
 18 19  1  0  0  0  0
M  END
>  <Catalog ID>
Z104479728

>  <a_acc>
1

>  <a_don>
1

>  <a_heavy>
9

>  <logP>
2.3710001

>  <logS>
-2.0120699

>  <TPSA>
20.23

>  <Weight>
122.167

$$$$
Z104473586
  MOE2024           3D

 19 19  0  0  0  0  0  0  0  0999 V2000
    4.9390   -1.0900    0.3030 O   0  0  0  0  0  0  0  0  0  0  0  0
    5.3300   -0.2080    0.4580 H   0  0  0  0  0  0  0  0  0  0  0  0
    3.5710   -1.0670    0.5240 C   0  0  0  0  0  0  0  0  0  0  0  0
    3.3910   -0.7100    1.5230 H   0  0  0  0  0  0  0  0  0  0  0  0
    3.2020   -2.0740    0.4350 H   0  0  0  0  0  0  0  0  0  0  0  0
    2.9100   -0.1600   -0.5130 C   0  0  0  0  0  0  0  0  0  0  0  0
    3.1010   -0.5450   -1.5000 H   0  0  0  0  0  0  0  0  0  0  0  0
    3.3210    0.8320   -0.4490 H   0  0  0  0  0  0  0  0  0  0  0  0
    1.4100   -0.1000   -0.2750 C   0  0  0  0  0  0  0  0  0  0  0  0
    0.5740   -1.0470   -0.8470 C   0  0  0  0  0  0  0  0  0  0  0  0
    0.9830   -1.8270   -1.4650 H   0  0  0  0  0  0  0  0  0  0  0  0
   -0.7920   -0.9990   -0.6280 C   0  0  0  0  0  0  0  0  0  0  0  0
   -1.4340   -1.7370   -1.0750 H   0  0  0  0  0  0  0  0  0  0  0  0
   -1.3310   -0.0020    0.1650 C   0  0  0  0  0  0  0  0  0  0  0  0
   -2.3920    0.0360    0.3360 H   0  0  0  0  0  0  0  0  0  0  0  0
   -0.5020    0.9460    0.7390 C   0  0  0  0  0  0  0  0  0  0  0  0
   -0.9200    1.7220    1.3560 H   0  0  0  0  0  0  0  0  0  0  0  0
    0.8640    0.8970    0.5190 C   0  0  0  0  0  0  0  0  0  0  0  0
    1.4970    1.6390    0.9700 H   0  0  0  0  0  0  0  0  0  0  0  0
  1  2  1  0  0  0  0
  1  3  1  0  0  0  0
  3  4  1  0  0  0  0
  3  5  1  0  0  0  0
  3  6  1  0  0  0  0
  6  7  1  0  0  0  0
  6  8  1  0  0  0  0
  6  9  1  0  0  0  0
  9 10  1  0  0  0  0
  9 18  2  0  0  0  0
 10 11  1  0  0  0  0
 10 12  2  0  0  0  0
 12 13  1  0  0  0  0
 12 14  1  0  0  0  0
 14 15  1  0  0  0  0
 14 16  2  0  0  0  0
 16 17  1  0  0  0  0
 16 18  1  0  0  0  0
 18 19  1  0  0  0  0
M  END
>  <Catalog ID>
Z104473586

>  <a_acc>
1

>  <a_don>
1

>  <a_heavy>
9

>  <logP>
1.472

>  <logS>
-1.21737

>  <TPSA>
20.23

>  <Weight>
122.167

$$$$
Z440623534
  MOE2024           3D

 12 12  0  0  0  0  0  0  0  0999 V2000
    3.1040   -0.4610    1.2990 F   0  0  0  0  0  0  0  0  0  0  0  0
    2.6680   -0.0140    0.1250 C   0  0  0  0  0  0  0  0  0  0  0  0
    3.2260   -0.7870   -0.8020 F   0  0  0  0  0  0  0  0  0  0  0  0
    3.2160    1.1900   -0.0300 F   0  0  0  0  0  0  0  0  0  0  0  0
    1.1170    0.0340    0.0270 C   0  0  0  0  0  0  0  0  0  0  0  0
    0.3410    1.1290   -0.1880 C   0  0  0  0  0  0  0  0  0  0  0  0
    0.6280    2.1560   -0.3310 H   0  0  0  0  0  0  0  0  0  0  0  0
   -0.9390    0.7150   -0.1980 N   0  0  0  0  0  0  0  0  0  0  0  0
   -1.7830    1.2800   -0.3350 H   0  0  0  0  0  0  0  0  0  0  0  0
   -0.8800   -0.6150    0.0110 C   0  0  0  0  0  0  0  0  0  0  0  0
   -1.7640   -1.2280    0.0550 H   0  0  0  0  0  0  0  0  0  0  0  0
    0.3230   -1.0660    0.1510 N   0  0  0  0  0  0  0  0  0  0  0  0
  1  2  1  0  0  0  0
  2  3  1  0  0  0  0
  2  4  1  0  0  0  0
  2  5  1  0  0  0  0
  5  6  2  0  0  0  0
  5 12  1  0  0  0  0
  6  7  1  0  0  0  0
  6  8  1  0  0  0  0
  8  9  1  0  0  0  0
  8 10  1  0  0  0  0
 10 11  1  0  0  0  0
 10 12  2  0  0  0  0
M  END
>  <Catalog ID>
Z440623534

>  <a_acc>
2

>  <a_don>
2

>  <a_heavy>
9

>  <logP>
0.53675997

>  <logS>
-1.19857

>  <TPSA>
28.68

>  <Weight>
136.07599

$$$$
Z1198261676
  MOE2024           3D

 18 18  0  0  0  0  0  0  0  0999 V2000
    2.7170    0.1340   -0.0140 C   0  0  0  0  0  0  0  0  0  0  0  0
    3.1240   -0.8600   -0.0230 H   0  0  0  0  0  0  0  0  0  0  0  0
    3.0620    0.6470    0.8630 H   0  0  0  0  0  0  0  0  0  0  0  0
    3.0540    0.6590   -0.8870 H   0  0  0  0  0  0  0  0  0  0  0  0
    1.2080    0.0900   -0.0070 C   0  0  0  0  0  0  0  0  0  0  0  0
    0.6570   -1.1110   -0.0220 N   0  0  0  0  0  0  0  0  0  0  0  0
   -0.6620   -1.1240   -0.0100 C   0  0  0  0  0  0  0  0  0  0  0  0
   -1.1430   -2.0860   -0.0180 H   0  0  0  0  0  0  0  0  0  0  0  0
   -1.4100    0.0250    0.0130 C   0  0  0  0  0  0  0  0  0  0  0  0
   -2.9330   -0.0200    0.0340 C   0  0  0  0  0  0  0  0  0  0  0  0
   -3.2870   -1.0320    0.1160 H   0  0  0  0  0  0  0  0  0  0  0  0
   -3.3250    0.4080   -0.8710 H   0  0  0  0  0  0  0  0  0  0  0  0
   -3.3030    0.5390    0.8750 H   0  0  0  0  0  0  0  0  0  0  0  0
   -0.7060    1.2190    0.0240 C   0  0  0  0  0  0  0  0  0  0  0  0
   -1.3050    2.4340    0.0340 N   0  0  0  0  0  0  0  0  0  0  0  0
   -0.6680    3.2210   -0.0950 H   0  0  0  0  0  0  0  0  0  0  0  0
   -2.2180    2.5470   -0.4020 H   0  0  0  0  0  0  0  0  0  0  0  0
    0.6030    1.2600    0.0120 N   0  0  0  0  0  0  0  0  0  0  0  0
  1  2  1  0  0  0  0
  1  3  1  0  0  0  0
  1  4  1  0  0  0  0
  1  5  1  0  0  0  0
  5  6  1  0  0  0  0
  5 18  2  0  0  0  0
  6  7  2  0  0  0  0
  7  8  1  0  0  0  0
  7  9  1  0  0  0  0
  9 10  1  0  0  0  0
  9 14  2  0  0  0  0
 10 11  1  0  0  0  0
 10 12  1  0  0  0  0
 10 13  1  0  0  0  0
 14 15  1  0  0  0  0
 14 18  1  0  0  0  0
 15 16  1  0  0  0  0
 15 17  1  0  0  0  0
M  END
>  <Catalog ID>
Z1198261676

>  <a_acc>
2

>  <a_don>
1

>  <a_heavy>
9

>  <logP>
-0.11

>  <logS>
-0.47264001

>  <TPSA>
51.799999

>  <Weight>
123.159

$$$$
Z104478044
  MOE2024           3D

 23 23  0  0  0  0  0  0  0  0999 V2000
    5.8480   -0.7160   -0.3140 O   0  5  0  0  0  0  0  0  0  0  0  0
    5.0170   -1.2900    0.3960 C   0  0  0  0  0  0  0  0  0  0  0  0
    5.3130   -1.8470    1.4580 O   0  0  0  0  0  0  0  0  0  0  0  0
    3.5740   -1.3160   -0.0560 C   0  0  0  0  0  0  0  0  0  0  0  0
    3.1330   -2.2150    0.3260 H   0  0  0  0  0  0  0  0  0  0  0  0
    3.5700   -1.3600   -1.1280 H   0  0  0  0  0  0  0  0  0  0  0  0
    2.7900   -0.0820    0.4280 C   0  0  0  0  0  0  0  0  0  0  0  0
    3.2930    0.8000    0.0700 H   0  0  0  0  0  0  0  0  0  0  0  0
    2.8140   -0.0570    1.5040 H   0  0  0  0  0  0  0  0  0  0  0  0
    1.3360   -0.0730   -0.0710 C   0  0  0  0  0  0  0  0  0  0  0  0
    1.3300   -0.1050   -1.1480 H   0  0  0  0  0  0  0  0  0  0  0  0
    0.5700    1.1660    0.3800 C   0  0  0  0  0  0  0  0  0  0  0  0
    0.8240    2.0300   -0.2080 H   0  0  0  0  0  0  0  0  0  0  0  0
    0.7880    1.3670    1.4160 H   0  0  0  0  0  0  0  0  0  0  0  0
   -0.9030    0.7840    0.2410 C   0  0  0  0  0  0  0  0  0  0  0  0
   -1.2520    1.0610   -0.7400 H   0  0  0  0  0  0  0  0  0  0  0  0
   -1.5070    1.2810    0.9800 H   0  0  0  0  0  0  0  0  0  0  0  0
   -0.9620   -0.7410    0.3890 C   0  0  0  0  0  0  0  0  0  0  0  0
   -1.4580   -1.1710   -0.4640 H   0  0  0  0  0  0  0  0  0  0  0  0
   -1.4940   -1.0230    1.2810 H   0  0  0  0  0  0  0  0  0  0  0  0
    0.4880   -1.2290    0.4580 C   0  0  0  0  0  0  0  0  0  0  0  0
    0.7490   -1.4240    1.4850 H   0  0  0  0  0  0  0  0  0  0  0  0
    0.6390   -2.1270   -0.1160 H   0  0  0  0  0  0  0  0  0  0  0  0
  1  2  1  0  0  0  0
  2  3  2  0  0  0  0
  2  4  1  0  0  0  0
  4  5  1  0  0  0  0
  4  6  1  0  0  0  0
  4  7  1  0  0  0  0
  7  8  1  0  0  0  0
  7  9  1  0  0  0  0
  7 10  1  0  0  0  0
 10 11  1  0  0  0  0
 10 12  1  0  0  0  0
 10 21  1  0  0  0  0
 12 13  1  0  0  0  0
 12 14  1  0  0  0  0
 12 15  1  0  0  0  0
 15 16  1  0  0  0  0
 15 17  1  0  0  0  0
 15 18  1  0  0  0  0
 18 19  1  0  0  0  0
 18 20  1  0  0  0  0
 18 21  1  0  0  0  0
 21 22  1  0  0  0  0
 21 23  1  0  0  0  0
M  CHG  1   1  -1
M  END
>  <Catalog ID>
Z104478044

>  <a_acc>
0

>  <a_don>
0

>  <a_heavy>
10

>  <logP>
2.1489999

>  <logS>
-2.53002

>  <TPSA>
40.130001

>  <Weight>
141.19

$$$$
Z104473678
  MOE2024           3D

 16 17  0  0  0  0  0  0  0  0999 V2000
   -2.7380    3.9900    0.0260 O   0  0  0  0  0  0  0  0  0  0  0  0
   -3.6250    3.5910    0.0260 H   0  0  0  0  0  0  0  0  0  0  0  0
   -1.7550    3.0750    0.0180 C   0  0  0  0  0  0  0  0  0  0  0  0
   -0.4320    3.5090    0.0180 C   0  0  0  0  0  0  0  0  0  0  0  0
   -0.2260    4.5640    0.0240 H   0  0  0  0  0  0  0  0  0  0  0  0
    0.6090    2.5890    0.0100 C   0  0  0  0  0  0  0  0  0  0  0  0
    1.6380    2.8980    0.0090 H   0  0  0  0  0  0  0  0  0  0  0  0
    0.2810    1.2460    0.0020 C   0  0  0  0  0  0  0  0  0  0  0  0
    1.1060    0.1920   -0.0070 O   0  0  0  0  0  0  0  0  0  0  0  0
    0.2790   -0.9710   -0.0120 C   0  0  0  0  0  0  0  0  0  0  0  0
    0.4660   -1.5500    0.8740 H   0  0  0  0  0  0  0  0  0  0  0  0
    0.4620   -1.5390   -0.9070 H   0  0  0  0  0  0  0  0  0  0  0  0
   -1.0710   -0.5100   -0.0070 O   0  0  0  0  0  0  0  0  0  0  0  0
   -1.0190    0.8260    0.0020 C   0  0  0  0  0  0  0  0  0  0  0  0
   -2.0710    1.7210    0.0100 C   0  0  0  0  0  0  0  0  0  0  0  0
   -3.0830    1.3660    0.0100 H   0  0  0  0  0  0  0  0  0  0  0  0
  1  2  1  0  0  0  0
  1  3  1  0  0  0  0
  3  4  1  0  0  0  0
  3 15  2  0  0  0  0
  4  5  1  0  0  0  0
  4  6  2  0  0  0  0
  6  7  1  0  0  0  0
  6  8  1  0  0  0  0
  8  9  1  0  0  0  0
  8 14  2  0  0  0  0
  9 10  1  0  0  0  0
 10 11  1  0  0  0  0
 10 12  1  0  0  0  0
 10 13  1  0  0  0  0
 13 14  1  0  0  0  0
 14 15  1  0  0  0  0
 15 16  1  0  0  0  0
M  END
>  <Catalog ID>
Z104473678

>  <a_acc>
3

>  <a_don>
1

>  <a_heavy>
10

>  <logP>
1.303

>  <logS>
-0.97803003

>  <TPSA>
38.689999

>  <Weight>
138.12199

$$$$
Z57914061
  MOE2024           3D

 14 14  0  0  0  0  0  0  0  0999 V2000
    3.6440    1.0280    0.0120 O   0  5  0  0  0  0  0  0  0  0  0  0
    2.9410    0.0050   -0.0030 C   0  0  0  0  0  0  0  0  0  0  0  0
    3.5270   -1.0940   -0.0180 O   0  0  0  0  0  0  0  0  0  0  0  0
    1.4850    0.0420   -0.0020 C   0  0  0  0  0  0  0  0  0  0  0  0
    0.7520   -1.1520    0.0000 C   0  0  0  0  0  0  0  0  0  0  0  0
    1.2930   -2.0840    0.0010 H   0  0  0  0  0  0  0  0  0  0  0  0
   -0.6330   -1.1710    0.0020 C   0  0  0  0  0  0  0  0  0  0  0  0
   -1.1500   -2.1140    0.0040 H   0  0  0  0  0  0  0  0  0  0  0  0
   -1.3480    0.0140    0.0010 C   0  0  0  0  0  0  0  0  0  0  0  0
   -2.4230    0.0000    0.0020 H   0  0  0  0  0  0  0  0  0  0  0  0
   -0.6630    1.2140   -0.0020 C   0  0  0  0  0  0  0  0  0  0  0  0
   -1.1900    2.1500   -0.0030 H   0  0  0  0  0  0  0  0  0  0  0  0
    0.7210    1.2120   -0.0040 C   0  0  0  0  0  0  0  0  0  0  0  0
    1.2860    2.3880   -0.0070 F   0  0  0  0  0  0  0  0  0  0  0  0
  1  2  1  0  0  0  0
  2  3  2  0  0  0  0
  2  4  1  0  0  0  0
  4  5  1  0  0  0  0
  4 13  2  0  0  0  0
  5  6  1  0  0  0  0
  5  7  2  0  0  0  0
  7  8  1  0  0  0  0
  7  9  1  0  0  0  0
  9 10  1  0  0  0  0
  9 11  2  0  0  0  0
 11 12  1  0  0  0  0
 11 13  1  0  0  0  0
 13 14  1  0  0  0  0
M  CHG  1   1  -1
M  END
>  <Catalog ID>
Z57914061

>  <a_acc>
0

>  <a_don>
0

>  <a_heavy>
10

>  <logP>
1.855

>  <logS>
-1.90971

>  <TPSA>
40.130001

>  <Weight>
139.105

$$$$
Z300095616
  MOE2024           3D

 22 22  0  0  0  0  0  0  0  0999 V2000
    3.7840    0.4130   -0.8400 N   0  0  0  0  0  0  0  0  0  0  0  0
    3.6440   -0.4070   -1.4180 H   0  0  0  0  0  0  0  0  0  0  0  0
    4.7670    0.4090   -0.5970 H   0  0  0  0  0  0  0  0  0  0  0  0
    3.0520   -0.0330    0.5620 S   0  0  0  0  0  0  0  0  0  0  0  0
    3.1840    1.0470    1.5060 O   0  0  0  0  0  0  0  0  0  0  0  0
    3.5730   -1.3520    0.8130 O   0  0  0  0  0  0  0  0  0  0  0  0
    1.4800   -0.1380   -0.0180 N   0  0  0  0  0  0  0  0  0  0  0  0
    0.6460   -0.9370    0.8810 C   0  0  0  0  0  0  0  0  0  0  0  0
    0.5650   -0.4480    1.8380 H   0  0  0  0  0  0  0  0  0  0  0  0
    1.0990   -1.9030    1.0340 H   0  0  0  0  0  0  0  0  0  0  0  0
   -0.7470   -1.1390    0.2750 C   0  0  0  0  0  0  0  0  0  0  0  0
   -1.3570   -1.7010    0.9600 H   0  0  0  0  0  0  0  0  0  0  0  0
   -0.6500   -1.7170   -0.6280 H   0  0  0  0  0  0  0  0  0  0  0  0
   -1.4230    0.2010   -0.0380 C   0  0  0  0  0  0  0  0  0  0  0  0
   -1.6480    0.7120    0.8830 H   0  0  0  0  0  0  0  0  0  0  0  0
   -2.3470    0.0350   -0.5650 H   0  0  0  0  0  0  0  0  0  0  0  0
   -0.4830    1.0670   -0.8850 C   0  0  0  0  0  0  0  0  0  0  0  0
   -0.9080    2.0470   -1.0110 H   0  0  0  0  0  0  0  0  0  0  0  0
   -0.3650    0.6310   -1.8610 H   0  0  0  0  0  0  0  0  0  0  0  0
    0.8980    1.1920   -0.2330 C   0  0  0  0  0  0  0  0  0  0  0  0
    1.5380    1.7710   -0.8790 H   0  0  0  0  0  0  0  0  0  0  0  0
    0.8130    1.7140    0.7070 H   0  0  0  0  0  0  0  0  0  0  0  0
  1  2  1  0  0  0  0
  1  3  1  0  0  0  0
  1  4  1  0  0  0  0
  4  5  2  0  0  0  0
  4  6  2  0  0  0  0
  4  7  1  0  0  0  0
  7  8  1  0  0  0  0
  7 20  1  0  0  0  0
  8  9  1  0  0  0  0
  8 10  1  0  0  0  0
  8 11  1  0  0  0  0
 11 12  1  0  0  0  0
 11 13  1  0  0  0  0
 11 14  1  0  0  0  0
 14 15  1  0  0  0  0
 14 16  1  0  0  0  0
 14 17  1  0  0  0  0
 17 18  1  0  0  0  0
 17 19  1  0  0  0  0
 17 20  1  0  0  0  0
 20 21  1  0  0  0  0
 20 22  1  0  0  0  0
M  END
>  <Catalog ID>
Z300095616

>  <a_acc>
2

>  <a_don>
1

>  <a_heavy>
10

>  <logP>
-0.79799998

>  <logS>
-0.31465

>  <TPSA>
63.400002

>  <Weight>
164.229

$$$$
Z56926682
  MOE2024           3D

 19 20  0  0  0  0  0  0  0  0999 V2000
   -2.6160   -4.0330   -0.4860 O   0  0  0  0  0  0  0  0  0  0  0  0
   -2.2510   -3.6360   -1.3020 H   0  0  0  0  0  0  0  0  0  0  0  0
   -2.5130   -3.1260    0.5560 C   0  0  0  0  0  0  0  0  0  0  0  0
   -2.7170   -3.6380    1.4800 H   0  0  0  0  0  0  0  0  0  0  0  0
   -3.2320   -2.3400    0.4060 H   0  0  0  0  0  0  0  0  0  0  0  0
   -1.1480   -2.5750    0.5670 N   0  0  0  0  0  0  0  0  0  0  0  0
   -0.0080   -3.2080    0.9480 C   0  0  0  0  0  0  0  0  0  0  0  0
   -0.0210   -4.2330    1.2770 H   0  0  0  0  0  0  0  0  0  0  0  0
    1.0530   -2.4840    0.8740 N   0  0  0  0  0  0  0  0  0  0  0  0
    0.6070   -1.2860    0.4090 C   0  0  0  0  0  0  0  0  0  0  0  0
    1.3230   -0.1230    0.1340 C   0  0  0  0  0  0  0  0  0  0  0  0
    2.3840   -0.1220    0.3000 H   0  0  0  0  0  0  0  0  0  0  0  0
    0.6540    0.9850   -0.3390 C   0  0  0  0  0  0  0  0  0  0  0  0
    1.1920    1.8910   -0.5560 H   0  0  0  0  0  0  0  0  0  0  0  0
   -0.7310    0.9440   -0.5430 C   0  0  0  0  0  0  0  0  0  0  0  0
   -1.2300    1.8230   -0.9140 H   0  0  0  0  0  0  0  0  0  0  0  0
   -1.4470   -0.2010   -0.2740 C   0  0  0  0  0  0  0  0  0  0  0  0
   -2.5110   -0.2330   -0.4300 H   0  0  0  0  0  0  0  0  0  0  0  0
   -0.7620   -1.3210    0.2080 C   0  0  0  0  0  0  0  0  0  0  0  0
  1  2  1  0  0  0  0
  1  3  1  0  0  0  0
  3  4  1  0  0  0  0
  3  5  1  0  0  0  0
  3  6  1  0  0  0  0
  6  7  1  0  0  0  0
  6 19  1  0  0  0  0
  7  8  1  0  0  0  0
  7  9  2  0  0  0  0
  9 10  1  0  0  0  0
 10 11  1  0  0  0  0
 10 19  2  0  0  0  0
 11 12  1  0  0  0  0
 11 13  2  0  0  0  0
 13 14  1  0  0  0  0
 13 15  1  0  0  0  0
 15 16  1  0  0  0  0
 15 17  2  0  0  0  0
 17 18  1  0  0  0  0
 17 19  1  0  0  0  0
M  END
>  <Catalog ID>
Z56926682

>  <a_acc>
2

>  <a_don>
1

>  <a_heavy>
11

>  <logP>
1.094

>  <logS>
-1.20155

>  <TPSA>
38.049999

>  <Weight>
148.16499

$$$$
Z55928828
  MOE2024           3D

 21 22  0  0  0  0  0  0  0  0999 V2000
   -0.0510    4.9760    0.1530 C   0  0  0  0  0  0  0  0  0  0  0  0
    1.0040    5.1100    0.3090 H   0  0  0  0  0  0  0  0  0  0  0  0
   -0.5730    5.4240    0.9780 H   0  0  0  0  0  0  0  0  0  0  0  0
   -0.3240    5.4820   -0.7550 H   0  0  0  0  0  0  0  0  0  0  0  0
   -0.4020    3.4980    0.0520 C   0  0  0  0  0  0  0  0  0  0  0  0
    0.6080    2.5620    0.1570 C   0  0  0  0  0  0  0  0  0  0  0  0
    1.6340    2.8400    0.3070 H   0  0  0  0  0  0  0  0  0  0  0  0
    0.3100    1.2060    0.0670 C   0  0  0  0  0  0  0  0  0  0  0  0
    1.1380    0.1250    0.1420 N   0  0  0  0  0  0  0  0  0  0  0  0
    0.3520   -0.8840   -0.0020 C   0  0  0  0  0  0  0  0  0  0  0  0
    0.6770   -1.9100    0.0060 H   0  0  0  0  0  0  0  0  0  0  0  0
   -0.9520   -0.5510   -0.1690 N   0  0  0  0  0  0  0  0  0  0  0  0
   -1.7440   -1.1830   -0.3010 H   0  0  0  0  0  0  0  0  0  0  0  0
   -0.9960    0.8030   -0.1260 C   0  0  0  0  0  0  0  0  0  0  0  0
   -2.0290    1.7340   -0.2340 C   0  0  0  0  0  0  0  0  0  0  0  0
   -3.0370    1.3920   -0.3840 H   0  0  0  0  0  0  0  0  0  0  0  0
   -1.7320    3.0790   -0.1440 C   0  0  0  0  0  0  0  0  0  0  0  0
   -2.8590    4.0960   -0.2610 C   0  0  0  0  0  0  0  0  0  0  0  0
   -2.6820    4.7480   -1.0960 H   0  0  0  0  0  0  0  0  0  0  0  0
   -2.9210    4.6820    0.6380 H   0  0  0  0  0  0  0  0  0  0  0  0
   -3.8050    3.6070   -0.4100 H   0  0  0  0  0  0  0  0  0  0  0  0
  1  2  1  0  0  0  0
  1  3  1  0  0  0  0
  1  4  1  0  0  0  0
  1  5  1  0  0  0  0
  5  6  1  0  0  0  0
  5 17  2  0  0  0  0
  6  7  1  0  0  0  0
  6  8  2  0  0  0  0
  8  9  1  0  0  0  0
  8 14  1  0  0  0  0
  9 10  2  0  0  0  0
 10 11  1  0  0  0  0
 10 12  1  0  0  0  0
 12 13  1  0  0  0  0
 12 14  1  0  0  0  0
 14 15  2  0  0  0  0
 15 16  1  0  0  0  0
 15 17  1  0  0  0  0
 17 18  1  0  0  0  0
 18 19  1  0  0  0  0
 18 20  1  0  0  0  0
 18 21  1  0  0  0  0
M  END
>  <Catalog ID>
Z55928828

>  <a_acc>
2

>  <a_don>
2

>  <a_heavy>
11

>  <logP>
1.956

>  <logS>
-2.7524199

>  <TPSA>
28.68

>  <Weight>
146.19299

$$$$
Z89267039
  MOE2024           3D

 16 17  0  0  0  0  0  0  0  0999 V2000
   -0.0340   -4.6650    0.0040 N   0  0  0  0  0  0  0  0  0  0  0  0
   -0.9200   -5.1150   -0.2200 H   0  0  0  0  0  0  0  0  0  0  0  0
    0.8190   -5.1940   -0.1780 H   0  0  0  0  0  0  0  0  0  0  0  0
    0.0470   -3.3190    0.0050 C   0  0  0  0  0  0  0  0  0  0  0  0
    1.1390   -2.6440    0.0000 N   0  0  0  0  0  0  0  0  0  0  0  0
    0.7020   -1.3610   -0.0020 C   0  0  0  0  0  0  0  0  0  0  0  0
    1.4020   -0.1600   -0.0040 C   0  0  0  0  0  0  0  0  0  0  0  0
    2.4750   -0.1590   -0.0030 H   0  0  0  0  0  0  0  0  0  0  0  0
    0.6710    1.0110   -0.0070 C   0  0  0  0  0  0  0  0  0  0  0  0
    1.5110    2.5420   -0.0100 Cl  0  0  0  0  0  0  0  0  0  0  0  0
   -0.7260    1.0170   -0.0070 C   0  0  0  0  0  0  0  0  0  0  0  0
   -1.2480    1.9570   -0.0100 H   0  0  0  0  0  0  0  0  0  0  0  0
   -1.4180   -0.1820   -0.0050 C   0  0  0  0  0  0  0  0  0  0  0  0
   -2.4920   -0.2230   -0.0050 H   0  0  0  0  0  0  0  0  0  0  0  0
   -0.6730   -1.3530   -0.0030 C   0  0  0  0  0  0  0  0  0  0  0  0
   -1.0710   -2.6110    0.0000 O   0  0  0  0  0  0  0  0  0  0  0  0
  1  2  1  0  0  0  0
  1  3  1  0  0  0  0
  1  4  1  0  0  0  0
  4  5  2  0  0  0  0
  4 16  1  0  0  0  0
  5  6  1  0  0  0  0
  6  7  1  0  0  0  0
  6 15  2  0  0  0  0
  7  8  1  0  0  0  0
  7  9  2  0  0  0  0
  9 10  1  0  0  0  0
  9 11  1  0  0  0  0
 11 12  1  0  0  0  0
 11 13  2  0  0  0  0
 13 14  1  0  0  0  0
 13 15  1  0  0  0  0
 15 16  1  0  0  0  0
M  END
>  <Catalog ID>
Z89267039

>  <a_acc>
1

>  <a_don>
1

>  <a_heavy>
11

>  <logP>
1.675

>  <logS>
-3.0718

>  <TPSA>
52.049999

>  <Weight>
168.58299

$$$$
Z45415564
  MOE2024           3D

 20 20  0  0  0  0  0  0  0  0999 V2000
    2.8500    0.0010    0.3330 C   0  0  0  0  0  0  0  0  0  0  0  0
    3.2250   -1.0010    0.4400 H   0  0  0  0  0  0  0  0  0  0  0  0
    3.0360    0.5350    1.2480 H   0  0  0  0  0  0  0  0  0  0  0  0
    3.3830    0.4830   -0.4660 H   0  0  0  0  0  0  0  0  0  0  0  0
    1.3620   -0.0040    0.0320 C   0  0  0  0  0  0  0  0  0  0  0  0
    0.6610   -1.1930   -0.0700 C   0  0  0  0  0  0  0  0  0  0  0  0
    1.1670   -2.1340    0.0640 H   0  0  0  0  0  0  0  0  0  0  0  0
   -0.6960   -1.1820   -0.3450 C   0  0  0  0  0  0  0  0  0  0  0  0
   -1.2260   -2.1160   -0.4200 H   0  0  0  0  0  0  0  0  0  0  0  0
   -1.3850    0.0110   -0.5270 C   0  0  0  0  0  0  0  0  0  0  0  0
   -0.6680    1.1960   -0.4180 C   0  0  0  0  0  0  0  0  0  0  0  0
   -1.1770    2.1360   -0.5500 H   0  0  0  0  0  0  0  0  0  0  0  0
    0.6890    1.1920   -0.1430 C   0  0  0  0  0  0  0  0  0  0  0  0
    1.2200    2.1260   -0.0660 H   0  0  0  0  0  0  0  0  0  0  0  0
   -3.1670    0.0220   -0.8660 S   0  0  0  0  0  0  0  0  0  0  0  0
   -3.8770    0.0530    0.6270 N   0  0  0  0  0  0  0  0  0  0  0  0
   -4.4690   -0.7740    0.6170 H   0  0  0  0  0  0  0  0  0  0  0  0
   -4.5010    0.8520    0.5680 H   0  0  0  0  0  0  0  0  0  0  0  0
   -3.6030    1.2690   -1.4450 O   0  0  0  0  0  0  0  0  0  0  0  0
   -3.6270   -1.2350   -1.4010 O   0  0  0  0  0  0  0  0  0  0  0  0
  1  2  1  0  0  0  0
  1  3  1  0  0  0  0
  1  4  1  0  0  0  0
  1  5  1  0  0  0  0
  5  6  1  0  0  0  0
  5 13  2  0  0  0  0
  6  7  1  0  0  0  0
  6  8  2  0  0  0  0
  8  9  1  0  0  0  0
  8 10  1  0  0  0  0
 10 11  2  0  0  0  0
 10 15  1  0  0  0  0
 11 12  1  0  0  0  0
 11 13  1  0  0  0  0
 13 14  1  0  0  0  0
 15 16  1  0  0  0  0
 15 19  2  0  0  0  0
 15 20  2  0  0  0  0
 16 17  1  0  0  0  0
 16 18  1  0  0  0  0
M  END
>  <Catalog ID>
Z45415564

>  <a_acc>
2

>  <a_don>
1

>  <a_heavy>
11

>  <logP>
0.63200003

>  <logS>
-2.0854101

>  <TPSA>
60.16

>  <Weight>
171.22

$$$$
Z147642456
  MOE2024           3D

 18 18  0  0  0  0  0  0  0  0999 V2000
    2.8610    0.0720   -0.0020 C   0  0  0  0  0  0  0  0  0  0  0  0
    3.2740   -0.9200    0.0000 H   0  0  0  0  0  0  0  0  0  0  0  0
    3.2100    0.5940    0.8710 H   0  0  0  0  0  0  0  0  0  0  0  0
    3.2080    0.5900   -0.8780 H   0  0  0  0  0  0  0  0  0  0  0  0
    1.3450    0.0320   -0.0010 C   0  0  0  0  0  0  0  0  0  0  0  0
    0.6650   -1.1760    0.0010 C   0  0  0  0  0  0  0  0  0  0  0  0
    1.2030   -2.1060    0.0010 H   0  0  0  0  0  0  0  0  0  0  0  0
   -0.7170   -1.1860    0.0010 C   0  0  0  0  0  0  0  0  0  0  0  0
   -1.2640   -2.1100    0.0030 H   0  0  0  0  0  0  0  0  0  0  0  0
   -1.4160    0.0080    0.0000 C   0  0  0  0  0  0  0  0  0  0  0  0
   -2.7530   -0.0200    0.0010 O   0  0  0  0  0  0  0  0  0  0  0  0
   -3.0670    0.9410    0.0000 H   0  0  0  0  0  0  0  0  0  0  0  0
   -0.7660    1.2460   -0.0010 C   0  0  0  0  0  0  0  0  0  0  0  0
    0.6310    1.2190   -0.0020 C   0  0  0  0  0  0  0  0  0  0  0  0
    1.1530    2.1610   -0.0030 H   0  0  0  0  0  0  0  0  0  0  0  0
   -1.5010    2.5040   -0.0020 C   0  0  0  0  0  0  0  0  0  0  0  0
   -2.7520    2.5040   -0.0010 O   0  5  0  0  0  0  0  0  0  0  0  0
   -0.9090    3.5970   -0.0030 O   0  0  0  0  0  0  0  0  0  0  0  0
  1  2  1  0  0  0  0
  1  3  1  0  0  0  0
  1  4  1  0  0  0  0
  1  5  1  0  0  0  0
  5  6  1  0  0  0  0
  5 14  2  0  0  0  0
  6  7  1  0  0  0  0
  6  8  2  0  0  0  0
  8  9  1  0  0  0  0
  8 10  1  0  0  0  0
 10 11  1  0  0  0  0
 10 13  2  0  0  0  0
 11 12  1  0  0  0  0
 13 14  1  0  0  0  0
 13 16  1  0  0  0  0
 14 15  1  0  0  0  0
 16 17  1  0  0  0  0
 16 18  2  0  0  0  0
M  CHG  1  17  -1
M  END
>  <Catalog ID>
Z147642456

>  <a_acc>
1

>  <a_don>
1

>  <a_heavy>
11

>  <logP>
1.729

>  <logS>
-1.7266999

>  <TPSA>
60.360001

>  <Weight>
151.14099

$$$$
Z255114686
  MOE2024           3D

 19 20  0  0  0  0  0  0  0  0999 V2000
   -1.3670   -4.9640   -0.0310 N   0  0  0  0  0  0  0  0  0  0  0  0
   -2.3400   -4.9850    0.2850 H   0  0  0  0  0  0  0  0  0  0  0  0
   -0.8330   -5.7780    0.2870 H   0  0  0  0  0  0  0  0  0  0  0  0
   -0.7220   -3.7440   -0.0240 C   0  0  0  0  0  0  0  0  0  0  0  0
    0.6790   -3.7010   -0.0100 C   0  0  0  0  0  0  0  0  0  0  0  0
    1.2250   -4.6260   -0.0150 H   0  0  0  0  0  0  0  0  0  0  0  0
    1.3360   -2.5000    0.0060 C   0  0  0  0  0  0  0  0  0  0  0  0
    2.4090   -2.4560    0.0170 H   0  0  0  0  0  0  0  0  0  0  0  0
    0.6410   -1.2800    0.0070 C   0  0  0  0  0  0  0  0  0  0  0  0
    1.3460   -0.1210    0.0260 N   0  0  0  0  0  0  0  0  0  0  0  0
    0.6690    0.9870    0.0230 C   0  0  0  0  0  0  0  0  0  0  0  0
    1.2170    1.9130    0.0370 H   0  0  0  0  0  0  0  0  0  0  0  0
   -0.7310    1.0570    0.0000 C   0  0  0  0  0  0  0  0  0  0  0  0
   -1.2040    2.0230   -0.0020 H   0  0  0  0  0  0  0  0  0  0  0  0
   -1.4610   -0.0920   -0.0180 C   0  0  0  0  0  0  0  0  0  0  0  0
   -2.5370   -0.0840   -0.0360 H   0  0  0  0  0  0  0  0  0  0  0  0
   -0.7730   -1.3180   -0.0140 C   0  0  0  0  0  0  0  0  0  0  0  0
   -1.4250   -2.5640   -0.0310 C   0  0  0  0  0  0  0  0  0  0  0  0
   -2.4980   -2.5830   -0.0520 H   0  0  0  0  0  0  0  0  0  0  0  0
  1  2  1  0  0  0  0
  1  3  1  0  0  0  0
  1  4  1  0  0  0  0
  4  5  1  0  0  0  0
  4 18  2  0  0  0  0
  5  6  1  0  0  0  0
  5  7  2  0  0  0  0
  7  8  1  0  0  0  0
  7  9  1  0  0  0  0
  9 10  1  0  0  0  0
  9 17  2  0  0  0  0
 10 11  2  0  0  0  0
 11 12  1  0  0  0  0
 11 13  1  0  0  0  0
 13 14  1  0  0  0  0
 13 15  2  0  0  0  0
 15 16  1  0  0  0  0
 15 17  1  0  0  0  0
 17 18  1  0  0  0  0
 18 19  1  0  0  0  0
M  END
>  <Catalog ID>
Z255114686

>  <a_acc>
1

>  <a_don>
1

>  <a_heavy>
11

>  <logP>
1.473

>  <logS>
-1.6943001

>  <TPSA>
38.91

>  <Weight>
144.177

$$$$
Z45415568
  MOE2024           3D

 17 17  0  0  0  0  0  0  0  0999 V2000
    3.9540   -0.0010    0.7100 N   0  0  0  0  0  0  0  0  0  0  0  0
    4.5540    0.8170    0.6350 H   0  0  0  0  0  0  0  0  0  0  0  0
    4.5610   -0.8090    0.6010 H   0  0  0  0  0  0  0  0  0  0  0  0
    3.1040    0.0260   -0.7080 S   0  0  0  0  0  0  0  0  0  0  0  0
    3.4850   -1.2180   -1.3280 O   0  0  0  0  0  0  0  0  0  0  0  0
    3.4920    1.2880   -1.2850 O   0  0  0  0  0  0  0  0  0  0  0  0
    1.3640    0.0210   -0.1920 C   0  0  0  0  0  0  0  0  0  0  0  0
    0.6790   -1.1740    0.0210 C   0  0  0  0  0  0  0  0  0  0  0  0
    1.1930   -2.1080   -0.1380 H   0  0  0  0  0  0  0  0  0  0  0  0
   -0.6460   -1.1940    0.4330 C   0  0  0  0  0  0  0  0  0  0  0  0
   -1.1500   -2.1340    0.5880 H   0  0  0  0  0  0  0  0  0  0  0  0
   -1.3190   -0.0040    0.6430 C   0  0  0  0  0  0  0  0  0  0  0  0
   -2.3470    0.0100    0.9620 H   0  0  0  0  0  0  0  0  0  0  0  0
   -0.6390    1.1780    0.4340 C   0  0  0  0  0  0  0  0  0  0  0  0
   -1.2650    2.3070    0.6310 F   0  0  0  0  0  0  0  0  0  0  0  0
    0.6800    1.2120    0.0250 C   0  0  0  0  0  0  0  0  0  0  0  0
    1.1670    2.1600   -0.1230 H   0  0  0  0  0  0  0  0  0  0  0  0
  1  2  1  0  0  0  0
  1  3  1  0  0  0  0
  1  4  1  0  0  0  0
  4  5  2  0  0  0  0
  4  6  2  0  0  0  0
  4  7  1  0  0  0  0
  7  8  1  0  0  0  0
  7 16  2  0  0  0  0
  8  9  1  0  0  0  0
  8 10  2  0  0  0  0
 10 11  1  0  0  0  0
 10 12  1  0  0  0  0
 12 13  1  0  0  0  0
 12 14  2  0  0  0  0
 14 15  1  0  0  0  0
 14 16  1  0  0  0  0
 16 17  1  0  0  0  0
M  END
>  <Catalog ID>
Z45415568

>  <a_acc>
2

>  <a_don>
1

>  <a_heavy>
11

>  <logP>
0.52399999

>  <logS>
-1.9064699

>  <TPSA>
60.16

>  <Weight>
175.183

$$$$
Z362758748
  MOE2024           3D

 16 16  0  0  0  0  0  0  0  0999 V2000
    2.8120   -0.0970    0.4340 N   0  0  0  0  0  0  0  0  0  0  0  0
    3.2340    0.8510    0.2930 H   0  0  0  0  0  0  0  0  0  0  0  0
    3.3240   -0.8050   -0.0920 H   0  0  0  0  0  0  0  0  0  0  0  0
    1.4440   -0.0420    0.2110 C   0  0  0  0  0  0  0  0  0  0  0  0
    0.6660   -1.2040    0.1810 C   0  0  0  0  0  0  0  0  0  0  0  0
    1.2490   -2.3720    0.3290 F   0  0  0  0  0  0  0  0  0  0  0  0
   -0.6990   -1.1960   -0.0010 C   0  0  0  0  0  0  0  0  0  0  0  0
   -1.2520   -2.1170   -0.0090 H   0  0  0  0  0  0  0  0  0  0  0  0
   -1.3310    0.0230   -0.1700 C   0  0  0  0  0  0  0  0  0  0  0  0
   -2.3970    0.0680   -0.3080 H   0  0  0  0  0  0  0  0  0  0  0  0
   -0.5830    1.1860   -0.1650 C   0  0  0  0  0  0  0  0  0  0  0  0
   -1.0850    2.1310   -0.3040 H   0  0  0  0  0  0  0  0  0  0  0  0
    0.8080    1.1980    0.0090 C   0  0  0  0  0  0  0  0  0  0  0  0
    1.5240    2.4690   -0.0450 C   0  0  0  0  0  0  0  0  0  0  0  0
    0.8950    3.5440   -0.0460 O   0  5  0  0  0  0  0  0  0  0  0  0
    2.7700    2.5310   -0.1200 O   0  0  0  0  0  0  0  0  0  0  0  0
  1  2  1  0  0  0  0
  1  3  1  0  0  0  0
  1  4  1  0  0  0  0
  4  5  1  0  0  0  0
  4 13  2  0  0  0  0
  5  6  1  0  0  0  0
  5  7  2  0  0  0  0
  7  8  1  0  0  0  0
  7  9  1  0  0  0  0
  9 10  1  0  0  0  0
  9 11  2  0  0  0  0
 11 12  1  0  0  0  0
 11 13  1  0  0  0  0
 13 14  1  0  0  0  0
 14 15  1  0  0  0  0
 14 16  2  0  0  0  0
M  CHG  1  15  -1
M  END
>  <Catalog ID>
Z362758748

>  <a_acc>
0

>  <a_don>
1

>  <a_heavy>
11

>  <logP>
1.181

>  <logS>
-1.63059

>  <TPSA>
66.150002

>  <Weight>
154.12

$$$$
Z424764636
  MOE2024           3D

 16 16  0  0  0  0  0  0  0  0999 V2000
    2.7600   -0.1160   -0.3500 N   0  0  0  0  0  0  0  0  0  0  0  0
    3.1890    0.8310   -0.2180 H   0  0  0  0  0  0  0  0  0  0  0  0
    3.2280   -0.7690    0.2770 H   0  0  0  0  0  0  0  0  0  0  0  0
    1.3960   -0.0130   -0.1940 C   0  0  0  0  0  0  0  0  0  0  0  0
    0.6420   -1.1820   -0.1900 C   0  0  0  0  0  0  0  0  0  0  0  0
    1.1460   -2.1190   -0.3300 H   0  0  0  0  0  0  0  0  0  0  0  0
   -0.7280   -1.1520   -0.0190 C   0  0  0  0  0  0  0  0  0  0  0  0
   -1.2990   -2.0630   -0.0210 H   0  0  0  0  0  0  0  0  0  0  0  0
   -1.3560    0.0680    0.1570 C   0  0  0  0  0  0  0  0  0  0  0  0
   -2.4180    0.1280    0.3000 H   0  0  0  0  0  0  0  0  0  0  0  0
   -0.5990    1.2240    0.1520 C   0  0  0  0  0  0  0  0  0  0  0  0
   -1.2590    2.3320    0.3610 F   0  0  0  0  0  0  0  0  0  0  0  0
    0.7850    1.2430   -0.0340 C   0  0  0  0  0  0  0  0  0  0  0  0
    1.5460    2.4780   -0.0550 C   0  0  0  0  0  0  0  0  0  0  0  0
    1.0700    3.5420   -0.4850 O   0  5  0  0  0  0  0  0  0  0  0  0
    2.7350    2.5000    0.3330 O   0  0  0  0  0  0  0  0  0  0  0  0
  1  2  1  0  0  0  0
  1  3  1  0  0  0  0
  1  4  1  0  0  0  0
  4  5  1  0  0  0  0
  4 13  2  0  0  0  0
  5  6  1  0  0  0  0
  5  7  2  0  0  0  0
  7  8  1  0  0  0  0
  7  9  1  0  0  0  0
  9 10  1  0  0  0  0
  9 11  2  0  0  0  0
 11 12  1  0  0  0  0
 11 13  1  0  0  0  0
 13 14  1  0  0  0  0
 14 15  1  0  0  0  0
 14 16  2  0  0  0  0
M  CHG  1  15  -1
M  END
>  <Catalog ID>
Z424764636

>  <a_acc>
0

>  <a_don>
1

>  <a_heavy>
11

>  <logP>
1.181

>  <logS>
-1.63059

>  <TPSA>
66.150002

>  <Weight>
154.12

$$$$
Z818727120
  MOE2024           3D

 18 19  0  0  0  0  0  0  0  0999 V2000
   -2.6750   -2.5880   -0.0020 O   0  0  0  0  0  0  0  0  0  0  0  0
   -1.4510   -2.5330   -0.0020 C   0  0  0  0  0  0  0  0  0  0  0  0
   -0.6900   -3.7310   -0.0010 C   0  0  0  0  0  0  0  0  0  0  0  0
   -1.2460   -4.6490   -0.0010 H   0  0  0  0  0  0  0  0  0  0  0  0
    0.6640   -3.7100    0.0000 C   0  0  0  0  0  0  0  0  0  0  0  0
    1.2520   -4.6140    0.0000 H   0  0  0  0  0  0  0  0  0  0  0  0
    1.3340   -2.5110    0.0000 N   0  0  0  0  0  0  0  0  0  0  0  0
    2.3610   -2.4960    0.0000 H   0  0  0  0  0  0  0  0  0  0  0  0
    0.6620   -1.2930    0.0000 C   0  0  0  0  0  0  0  0  0  0  0  0
    1.3700   -0.0930    0.0000 C   0  0  0  0  0  0  0  0  0  0  0  0
    2.4440   -0.1130    0.0010 H   0  0  0  0  0  0  0  0  0  0  0  0
    0.7070    1.1150    0.0000 C   0  0  0  0  0  0  0  0  0  0  0  0
    1.2590    2.0400    0.0010 H   0  0  0  0  0  0  0  0  0  0  0  0
   -0.6810    1.1430    0.0000 C   0  0  0  0  0  0  0  0  0  0  0  0
   -1.1960    2.0890    0.0000 H   0  0  0  0  0  0  0  0  0  0  0  0
   -1.3930   -0.0370   -0.0010 C   0  0  0  0  0  0  0  0  0  0  0  0
   -2.4700   -0.0170   -0.0020 H   0  0  0  0  0  0  0  0  0  0  0  0
   -0.7440   -1.2770   -0.0010 C   0  0  0  0  0  0  0  0  0  0  0  0
  1  2  2  0  0  0  0
  2  3  1  0  0  0  0
  2 18  1  0  0  0  0
  3  4  1  0  0  0  0
  3  5  2  0  0  0  0
  5  6  1  0  0  0  0
  5  7  1  0  0  0  0
  7  8  1  0  0  0  0
  7  9  1  0  0  0  0
  9 10  1  0  0  0  0
  9 18  2  0  0  0  0
 10 11  1  0  0  0  0
 10 12  2  0  0  0  0
 12 13  1  0  0  0  0
 12 14  1  0  0  0  0
 14 15  1  0  0  0  0
 14 16  2  0  0  0  0
 16 17  1  0  0  0  0
 16 18  1  0  0  0  0
M  END
>  <Catalog ID>
Z818727120

>  <a_acc>
1

>  <a_don>
1

>  <a_heavy>
11

>  <logP>
1.2309999

>  <logS>
-1.90766

>  <TPSA>
29.1

>  <Weight>
145.161

$$$$
Z45415561
  MOE2024           3D

 21 21  0  0  0  0  0  0  0  0999 V2000
    3.4980   -1.0870   -0.3310 C   0  0  0  0  0  0  0  0  0  0  0  0
    4.4990   -0.7860   -0.5800 H   0  0  0  0  0  0  0  0  0  0  0  0
    3.1190   -1.7530   -1.0850 H   0  0  0  0  0  0  0  0  0  0  0  0
    3.4870   -1.5540    0.6380 H   0  0  0  0  0  0  0  0  0  0  0  0
    2.6900    0.0680   -0.2920 O   0  0  0  0  0  0  0  0  0  0  0  0
    1.3660   -0.0040   -0.0170 C   0  0  0  0  0  0  0  0  0  0  0  0
    0.6940   -1.1890    0.2630 C   0  0  0  0  0  0  0  0  0  0  0  0
    1.2090   -2.1310    0.2780 H   0  0  0  0  0  0  0  0  0  0  0  0
   -0.6640   -1.1680    0.5300 C   0  0  0  0  0  0  0  0  0  0  0  0
   -1.1740   -2.0920    0.7440 H   0  0  0  0  0  0  0  0  0  0  0  0
   -1.3860    0.0220    0.5280 C   0  0  0  0  0  0  0  0  0  0  0  0
   -0.6980    1.1970    0.2440 C   0  0  0  0  0  0  0  0  0  0  0  0
   -1.2320    2.1330    0.2330 H   0  0  0  0  0  0  0  0  0  0  0  0
    0.6590    1.1860   -0.0240 C   0  0  0  0  0  0  0  0  0  0  0  0
    1.1800    2.1020   -0.2420 H   0  0  0  0  0  0  0  0  0  0  0  0
   -3.1690    0.0360    0.8560 S   0  0  0  0  0  0  0  0  0  0  0  0
   -3.8660   -0.0670   -0.6400 N   0  0  0  0  0  0  0  0  0  0  0  0
   -4.5090    0.7200   -0.6500 H   0  0  0  0  0  0  0  0  0  0  0  0
   -4.4410   -0.9030   -0.5690 H   0  0  0  0  0  0  0  0  0  0  0  0
   -3.6250    1.3200    1.3280 O   0  0  0  0  0  0  0  0  0  0  0  0
   -3.6130   -1.1800    1.4900 O   0  0  0  0  0  0  0  0  0  0  0  0
  1  2  1  0  0  0  0
  1  3  1  0  0  0  0
  1  4  1  0  0  0  0
  1  5  1  0  0  0  0
  5  6  1  0  0  0  0
  6  7  1  0  0  0  0
  6 14  2  0  0  0  0
  7  8  1  0  0  0  0
  7  9  2  0  0  0  0
  9 10  1  0  0  0  0
  9 11  1  0  0  0  0
 11 12  2  0  0  0  0
 11 16  1  0  0  0  0
 12 13  1  0  0  0  0
 12 14  1  0  0  0  0
 14 15  1  0  0  0  0
 16 17  1  0  0  0  0
 16 20  2  0  0  0  0
 16 21  2  0  0  0  0
 17 18  1  0  0  0  0
 17 19  1  0  0  0  0
M  END
>  <Catalog ID>
Z45415561

>  <a_acc>
3

>  <a_don>
1

>  <a_heavy>
12

>  <logP>
0.28999999

>  <logS>
-1.66187

>  <TPSA>
69.389999

>  <Weight>
187.21899

$$$$
Z104476884
  MOE2024           3D

 17 18  0  0  0  0  0  0  0  0999 V2000
   -4.0510    3.7640   -0.0060 O   0  5  0  0  0  0  0  0  0  0  0  0
   -2.8590    4.1210   -0.0040 C   0  0  0  0  0  0  0  0  0  0  0  0
   -2.6010    5.3390   -0.0050 O   0  0  0  0  0  0  0  0  0  0  0  0
   -1.7850    3.1340   -0.0010 C   0  0  0  0  0  0  0  0  0  0  0  0
   -0.4360    3.5260    0.0010 C   0  0  0  0  0  0  0  0  0  0  0  0
   -0.2150    4.5810    0.0000 H   0  0  0  0  0  0  0  0  0  0  0  0
    0.6040    2.6070    0.0040 C   0  0  0  0  0  0  0  0  0  0  0  0
    1.6310    2.9200    0.0050 H   0  0  0  0  0  0  0  0  0  0  0  0
    0.2790    1.2660    0.0050 C   0  0  0  0  0  0  0  0  0  0  0  0
    1.0970    0.2100    0.0080 O   0  0  0  0  0  0  0  0  0  0  0  0
    0.2670   -0.9480    0.0070 C   0  0  0  0  0  0  0  0  0  0  0  0
    0.4470   -1.5230    0.8970 H   0  0  0  0  0  0  0  0  0  0  0  0
    0.4500   -1.5220   -0.8840 H   0  0  0  0  0  0  0  0  0  0  0  0
   -1.0800   -0.4830    0.0050 O   0  0  0  0  0  0  0  0  0  0  0  0
   -1.0220    0.8550    0.0030 C   0  0  0  0  0  0  0  0  0  0  0  0
   -2.0640    1.7600    0.0000 C   0  0  0  0  0  0  0  0  0  0  0  0
   -3.0850    1.4200   -0.0010 H   0  0  0  0  0  0  0  0  0  0  0  0
  1  2  1  0  0  0  0
  2  3  2  0  0  0  0
  2  4  1  0  0  0  0
  4  5  1  0  0  0  0
  4 16  2  0  0  0  0
  5  6  1  0  0  0  0
  5  7  2  0  0  0  0
  7  8  1  0  0  0  0
  7  9  1  0  0  0  0
  9 10  1  0  0  0  0
  9 15  2  0  0  0  0
 10 11  1  0  0  0  0
 11 12  1  0  0  0  0
 11 13  1  0  0  0  0
 11 14  1  0  0  0  0
 14 15  1  0  0  0  0
 15 16  1  0  0  0  0
 16 17  1  0  0  0  0
M  CHG  1   1  -1
M  END
>  <Catalog ID>
Z104476884

>  <a_acc>
2

>  <a_don>
0

>  <a_heavy>
12

>  <logP>
1.409

>  <logS>
-1.5698299

>  <TPSA>
58.59

>  <Weight>
165.12399

$$$$
Z89283908
  MOE2024           3D

 18 19  0  0  0  0  0  0  0  0999 V2000
   -3.5260   -2.3440    0.0010 O   0  5  0  0  0  0  0  0  0  0  0  0
   -2.5590   -3.1300   -0.0020 C   0  0  0  0  0  0  0  0  0  0  0  0
   -2.7940   -4.3540   -0.0040 O   0  0  0  0  0  0  0  0  0  0  0  0
   -1.1840   -2.6560   -0.0050 C   0  0  0  0  0  0  0  0  0  0  0  0
   -0.0360   -3.4030   -0.0100 C   0  0  0  0  0  0  0  0  0  0  0  0
    0.0170   -4.4780   -0.0120 H   0  0  0  0  0  0  0  0  0  0  0  0
    1.0600   -2.6040   -0.0120 N   0  0  0  0  0  0  0  0  0  0  0  0
    2.0350   -2.9110   -0.0150 H   0  0  0  0  0  0  0  0  0  0  0  0
    0.6390   -1.3020   -0.0080 C   0  0  0  0  0  0  0  0  0  0  0  0
    1.3690   -0.1110   -0.0080 C   0  0  0  0  0  0  0  0  0  0  0  0
    2.4430   -0.1400   -0.0110 H   0  0  0  0  0  0  0  0  0  0  0  0
    0.6900    1.0860   -0.0040 C   0  0  0  0  0  0  0  0  0  0  0  0
    1.2260    2.0180   -0.0030 H   0  0  0  0  0  0  0  0  0  0  0  0
   -0.7100    1.1040    0.0010 C   0  0  0  0  0  0  0  0  0  0  0  0
   -1.2280    2.0460    0.0040 H   0  0  0  0  0  0  0  0  0  0  0  0
   -1.4250   -0.0720    0.0000 C   0  0  0  0  0  0  0  0  0  0  0  0
   -2.5020   -0.0800    0.0040 H   0  0  0  0  0  0  0  0  0  0  0  0
   -0.7540   -1.2980   -0.0040 C   0  0  0  0  0  0  0  0  0  0  0  0
  1  2  1  0  0  0  0
  2  3  2  0  0  0  0
  2  4  1  0  0  0  0
  4  5  2  0  0  0  0
  4 18  1  0  0  0  0
  5  6  1  0  0  0  0
  5  7  1  0  0  0  0
  7  8  1  0  0  0  0
  7  9  1  0  0  0  0
  9 10  1  0  0  0  0
  9 18  2  0  0  0  0
 10 11  1  0  0  0  0
 10 12  2  0  0  0  0
 12 13  1  0  0  0  0
 12 14  1  0  0  0  0
 14 15  1  0  0  0  0
 14 16  2  0  0  0  0
 16 17  1  0  0  0  0
 16 18  1  0  0  0  0
M  CHG  1   1  -1
M  END
>  <Catalog ID>
Z89283908

>  <a_acc>
0

>  <a_don>
1

>  <a_heavy>
12

>  <logP>
2.0699999

>  <logS>
-1.9046299

>  <TPSA>
55.919998

>  <Weight>
160.15199

$$$$
Z440625162
  MOE2024           3D

 22 23  0  0  0  0  0  0  0  0999 V2000
   -3.3150   -3.3170    0.7770 O   0  0  0  0  0  0  0  0  0  0  0  0
   -2.7920   -2.9850    1.5320 H   0  0  0  0  0  0  0  0  0  0  0  0
   -2.9260   -2.6260   -0.3540 C   0  0  0  0  0  0  0  0  0  0  0  0
   -3.3730   -1.6480   -0.3210 H   0  0  0  0  0  0  0  0  0  0  0  0
   -3.2980   -3.1540   -1.2150 H   0  0  0  0  0  0  0  0  0  0  0  0
   -1.4070   -2.5640   -0.3680 C   0  0  0  0  0  0  0  0  0  0  0  0
   -0.6780   -3.7300   -0.5590 C   0  0  0  0  0  0  0  0  0  0  0  0
   -1.1950   -4.6660   -0.6860 H   0  0  0  0  0  0  0  0  0  0  0  0
    0.7070   -3.7040   -0.5850 C   0  0  0  0  0  0  0  0  0  0  0  0
    1.2590   -4.6150   -0.7370 H   0  0  0  0  0  0  0  0  0  0  0  0
    1.3810   -2.5070   -0.4140 C   0  0  0  0  0  0  0  0  0  0  0  0
    2.4550   -2.4750   -0.4300 H   0  0  0  0  0  0  0  0  0  0  0  0
    0.6680   -1.3380   -0.2140 C   0  0  0  0  0  0  0  0  0  0  0  0
    1.3580   -0.1830   -0.0320 O   0  0  0  0  0  0  0  0  0  0  0  0
    0.6400    0.9220    0.4790 C   0  0  0  0  0  0  0  0  0  0  0  0
    1.2140    1.8090    0.2850 H   0  0  0  0  0  0  0  0  0  0  0  0
    0.5370    0.7920    1.5420 H   0  0  0  0  0  0  0  0  0  0  0  0
   -0.7400    1.0080   -0.1850 C   0  0  0  0  0  0  0  0  0  0  0  0
   -0.6360    1.1950   -1.2390 H   0  0  0  0  0  0  0  0  0  0  0  0
   -1.3300    1.7890    0.2580 H   0  0  0  0  0  0  0  0  0  0  0  0
   -1.4360   -0.2130   -0.0210 O   0  0  0  0  0  0  0  0  0  0  0  0
   -0.7300   -1.3620   -0.1980 C   0  0  0  0  0  0  0  0  0  0  0  0
  1  2  1  0  0  0  0
  1  3  1  0  0  0  0
  3  4  1  0  0  0  0
  3  5  1  0  0  0  0
  3  6  1  0  0  0  0
  6  7  1  0  0  0  0
  6 22  2  0  0  0  0
  7  8  1  0  0  0  0
  7  9  2  0  0  0  0
  9 10  1  0  0  0  0
  9 11  1  0  0  0  0
 11 12  1  0  0  0  0
 11 13  2  0  0  0  0
 13 14  1  0  0  0  0
 13 22  1  0  0  0  0
 14 15  1  0  0  0  0
 15 16  1  0  0  0  0
 15 17  1  0  0  0  0
 15 18  1  0  0  0  0
 18 19  1  0  0  0  0
 18 20  1  0  0  0  0
 18 21  1  0  0  0  0
 21 22  1  0  0  0  0
M  END
>  <Catalog ID>
Z440625162

>  <a_acc>
3

>  <a_don>
1

>  <a_heavy>
12

>  <logP>
0.94

>  <logS>
-1.4055001

>  <TPSA>
38.689999

>  <Weight>
166.17599

$$$$
Z553832512
  MOE2024           3D

 17 18  0  0  0  0  0  0  0  0999 V2000
   -3.8560    0.0880    0.0060 O   0  5  0  0  0  0  0  0  0  0  0  0
   -3.5030    1.2800    0.0050 C   0  0  0  0  0  0  0  0  0  0  0  0
   -4.3990    2.1460    0.0050 O   0  0  0  0  0  0  0  0  0  0  0  0
   -2.1060    1.6910    0.0050 C   0  0  0  0  0  0  0  0  0  0  0  0
   -1.7570    3.0520    0.0020 C   0  0  0  0  0  0  0  0  0  0  0  0
   -2.5550    3.7770    0.0010 H   0  0  0  0  0  0  0  0  0  0  0  0
   -0.4390    3.4900    0.0020 C   0  0  0  0  0  0  0  0  0  0  0  0
   -0.2300    4.5450    0.0000 H   0  0  0  0  0  0  0  0  0  0  0  0
    0.6040    2.5770    0.0040 C   0  0  0  0  0  0  0  0  0  0  0  0
    1.6320    2.8870    0.0040 H   0  0  0  0  0  0  0  0  0  0  0  0
    0.2730    1.2390    0.0070 C   0  0  0  0  0  0  0  0  0  0  0  0
    1.1170    0.1990    0.0090 O   0  0  0  0  0  0  0  0  0  0  0  0
    0.3090   -0.9730    0.0080 C   0  0  0  0  0  0  0  0  0  0  0  0
    0.4980   -1.5450    0.8990 H   0  0  0  0  0  0  0  0  0  0  0  0
    0.4970   -1.5430   -0.8840 H   0  0  0  0  0  0  0  0  0  0  0  0
   -1.0360   -0.5310    0.0090 O   0  0  0  0  0  0  0  0  0  0  0  0
   -1.0260    0.8070    0.0070 C   0  0  0  0  0  0  0  0  0  0  0  0
  1  2  1  0  0  0  0
  2  3  2  0  0  0  0
  2  4  1  0  0  0  0
  4  5  1  0  0  0  0
  4 17  2  0  0  0  0
  5  6  1  0  0  0  0
  5  7  2  0  0  0  0
  7  8  1  0  0  0  0
  7  9  1  0  0  0  0
  9 10  1  0  0  0  0
  9 11  2  0  0  0  0
 11 12  1  0  0  0  0
 11 17  1  0  0  0  0
 12 13  1  0  0  0  0
 13 14  1  0  0  0  0
 13 15  1  0  0  0  0
 13 16  1  0  0  0  0
 16 17  1  0  0  0  0
M  CHG  1   1  -1
M  END
>  <Catalog ID>
Z553832512

>  <a_acc>
2

>  <a_don>
0

>  <a_heavy>
12

>  <logP>
1.37

>  <logS>
-1.5698299

>  <TPSA>
58.59

>  <Weight>
165.12399

$$$$
Z1198181962
  MOE2024           3D

 21 22  0  0  0  0  0  0  0  0999 V2000
    1.4450   -5.0730    0.0000 C   0  0  0  0  0  0  0  0  0  0  0  0
    0.7690   -5.9100    0.0010 H   0  0  0  0  0  0  0  0  0  0  0  0
    2.0660   -5.1420    0.8750 H   0  0  0  0  0  0  0  0  0  0  0  0
    2.0660   -5.1420   -0.8740 H   0  0  0  0  0  0  0  0  0  0  0  0
    0.6950   -3.7460    0.0000 C   0  0  0  0  0  0  0  0  0  0  0  0
    1.3820   -2.5750    0.0000 C   0  0  0  0  0  0  0  0  0  0  0  0
    2.4580   -2.5530    0.0000 H   0  0  0  0  0  0  0  0  0  0  0  0
    0.7010   -1.3150    0.0000 C   0  0  0  0  0  0  0  0  0  0  0  0
    1.3720   -0.0910    0.0000 C   0  0  0  0  0  0  0  0  0  0  0  0
    2.4480   -0.0810    0.0000 H   0  0  0  0  0  0  0  0  0  0  0  0
    0.6760    1.0990   -0.0010 C   0  0  0  0  0  0  0  0  0  0  0  0
    1.2040    2.0380   -0.0010 H   0  0  0  0  0  0  0  0  0  0  0  0
   -0.7140    1.0930   -0.0010 C   0  0  0  0  0  0  0  0  0  0  0  0
   -1.2510    2.0260   -0.0010 H   0  0  0  0  0  0  0  0  0  0  0  0
   -1.3960   -0.1050    0.0000 C   0  0  0  0  0  0  0  0  0  0  0  0
   -2.4700   -0.1120    0.0000 H   0  0  0  0  0  0  0  0  0  0  0  0
   -0.7030   -1.3130    0.0000 C   0  0  0  0  0  0  0  0  0  0  0  0
   -1.3750   -2.5300    0.0010 N   0  0  0  0  0  0  0  0  0  0  0  0
   -2.3920   -2.5750    0.0010 H   0  0  0  0  0  0  0  0  0  0  0  0
   -0.7430   -3.7370    0.0010 C   0  0  0  0  0  0  0  0  0  0  0  0
   -1.4370   -4.7380    0.0010 O   0  0  0  0  0  0  0  0  0  0  0  0
  1  2  1  0  0  0  0
  1  3  1  0  0  0  0
  1  4  1  0  0  0  0
  1  5  1  0  0  0  0
  5  6  2  0  0  0  0
  5 20  1  0  0  0  0
  6  7  1  0  0  0  0
  6  8  1  0  0  0  0
  8  9  1  0  0  0  0
  8 17  2  0  0  0  0
  9 10  1  0  0  0  0
  9 11  2  0  0  0  0
 11 12  1  0  0  0  0
 11 13  1  0  0  0  0
 13 14  1  0  0  0  0
 13 15  2  0  0  0  0
 15 16  1  0  0  0  0
 15 17  1  0  0  0  0
 17 18  1  0  0  0  0
 18 19  1  0  0  0  0
 18 20  1  0  0  0  0
 20 21  2  0  0  0  0
M  END
>  <Catalog ID>
Z1198181962

>  <a_acc>
1

>  <a_don>
2

>  <a_heavy>
12

>  <logP>
1.577

>  <logS>
-2.2321401

>  <TPSA>
29.1

>  <Weight>
159.188

$$$$
Z1269175847
  MOE2024           3D

 19 20  0  0  0  0  0  0  0  0999 V2000
    2.6060    0.1710   -0.0060 O   0  0  0  0  0  0  0  0  0  0  0  0
    1.4000    0.1070   -0.0170 C   0  0  0  0  0  0  0  0  0  0  0  0
    0.7000   -1.2620   -0.0040 C   0  0  0  0  0  0  0  0  0  0  0  0
    0.9190   -1.7360    0.9350 H   0  0  0  0  0  0  0  0  0  0  0  0
    1.1300   -1.8600   -0.7860 H   0  0  0  0  0  0  0  0  0  0  0  0
   -0.7990   -1.2170   -0.1950 N   0  0  0  0  0  0  0  0  0  0  0  0
   -1.2950   -2.0160    0.2140 H   0  0  0  0  0  0  0  0  0  0  0  0
   -1.4590    0.0180   -0.1040 C   0  0  0  0  0  0  0  0  0  0  0  0
   -2.8450    0.0380   -0.0910 C   0  0  0  0  0  0  0  0  0  0  0  0
   -3.4050   -0.8760   -0.1490 H   0  0  0  0  0  0  0  0  0  0  0  0
   -3.5020    1.2500   -0.0100 C   0  0  0  0  0  0  0  0  0  0  0  0
   -5.4290    1.2590    0.0080 Br  0  0  0  0  0  0  0  0  0  0  0  0
   -2.8330    2.4560    0.0560 C   0  0  0  0  0  0  0  0  0  0  0  0
   -3.3820    3.3790    0.1150 H   0  0  0  0  0  0  0  0  0  0  0  0
   -1.4480    2.4420    0.0430 C   0  0  0  0  0  0  0  0  0  0  0  0
   -0.9060    3.3690    0.0950 H   0  0  0  0  0  0  0  0  0  0  0  0
   -0.7570    1.2390   -0.0320 C   0  0  0  0  0  0  0  0  0  0  0  0
    0.6480    1.2360   -0.0270 N   0  0  0  0  0  0  0  0  0  0  0  0
    1.1610    2.1150   -0.0350 H   0  0  0  0  0  0  0  0  0  0  0  0
  1  2  2  0  0  0  0
  2  3  1  0  0  0  0
  2 18  1  0  0  0  0
  3  4  1  0  0  0  0
  3  5  1  0  0  0  0
  3  6  1  0  0  0  0
  6  7  1  0  0  0  0
  6  8  1  0  0  0  0
  8  9  1  0  0  0  0
  8 17  2  0  0  0  0
  9 10  1  0  0  0  0
  9 11  2  0  0  0  0
 11 12  1  0  0  0  0
 11 13  1  0  0  0  0
 13 14  1  0  0  0  0
 13 15  2  0  0  0  0
 15 16  1  0  0  0  0
 15 17  1  0  0  0  0
 17 18  1  0  0  0  0
 18 19  1  0  0  0  0
M  END
>  <Catalog ID>
Z1269175847

>  <a_acc>
1

>  <a_don>
2

>  <a_heavy>
12

>  <logP>
1.199

>  <logS>
-2.6226599

>  <TPSA>
41.130001

>  <Weight>
227.06099

$$$$
Z53021532
  MOE2024           3D

 19 19  0  0  0  0  0  0  0  0999 V2000
    3.9140    0.0410   -0.6410 N   0  0  0  0  0  0  0  0  0  0  0  0
    4.5090   -0.7820   -0.6140 H   0  0  0  0  0  0  0  0  0  0  0  0
    4.5220    0.8450   -0.5090 H   0  0  0  0  0  0  0  0  0  0  0  0
    3.0950   -0.0440    0.7930 S   0  0  0  0  0  0  0  0  0  0  0  0
    3.5180   -1.3240    1.3090 O   0  0  0  0  0  0  0  0  0  0  0  0
    3.5050    1.1730    1.4490 O   0  0  0  0  0  0  0  0  0  0  0  0
    1.3420   -0.0260    0.3330 C   0  0  0  0  0  0  0  0  0  0  0  0
    0.6350   -1.2060    0.1420 C   0  0  0  0  0  0  0  0  0  0  0  0
    1.1290   -2.1520    0.2790 H   0  0  0  0  0  0  0  0  0  0  0  0
   -0.6990   -1.1910   -0.2230 C   0  0  0  0  0  0  0  0  0  0  0  0
   -1.2320   -2.1180   -0.3650 H   0  0  0  0  0  0  0  0  0  0  0  0
   -1.3900    0.0050   -0.4170 C   0  0  0  0  0  0  0  0  0  0  0  0
   -0.6710    1.1850   -0.2270 C   0  0  0  0  0  0  0  0  0  0  0  0
   -1.1830    2.1230   -0.3720 H   0  0  0  0  0  0  0  0  0  0  0  0
    0.6630    1.1700    0.1380 C   0  0  0  0  0  0  0  0  0  0  0  0
    1.1790    2.1040    0.2730 H   0  0  0  0  0  0  0  0  0  0  0  0
   -2.7970    0.0220   -0.8010 C   0  0  0  0  0  0  0  0  0  0  0  0
   -3.4220   -1.0420   -0.9640 O   0  5  0  0  0  0  0  0  0  0  0  0
   -3.3950    1.0990   -0.9710 O   0  0  0  0  0  0  0  0  0  0  0  0
  1  2  1  0  0  0  0
  1  3  1  0  0  0  0
  1  4  1  0  0  0  0
  4  5  2  0  0  0  0
  4  6  2  0  0  0  0
  4  7  1  0  0  0  0
  7  8  1  0  0  0  0
  7 15  2  0  0  0  0
  8  9  1  0  0  0  0
  8 10  2  0  0  0  0
 10 11  1  0  0  0  0
 10 12  1  0  0  0  0
 12 13  2  0  0  0  0
 12 17  1  0  0  0  0
 13 14  1  0  0  0  0
 13 15  1  0  0  0  0
 15 16  1  0  0  0  0
 17 18  1  0  0  0  0
 17 19  2  0  0  0  0
M  CHG  1  18  -1
M  END
>  <Catalog ID>
Z53021532

>  <a_acc>
2

>  <a_don>
1

>  <a_heavy>
13

>  <logP>
0.132

>  <logS>
-1.8413399

>  <TPSA>
100.29

>  <Weight>
200.194

$$$$
Z99600464
  MOE2024           3D

 19 20  0  0  0  0  0  0  0  0999 V2000
   -3.9130   -3.0410    0.3890 O   0  5  0  0  0  0  0  0  0  0  0  0
   -2.8950   -3.7140    0.1920 C   0  0  0  0  0  0  0  0  0  0  0  0
   -2.4150   -4.4470    1.0620 O   0  0  0  0  0  0  0  0  0  0  0  0
   -2.2480   -3.6560   -1.1670 C   0  0  0  0  0  0  0  0  0  0  0  0
   -2.9730   -3.2920   -1.8670 H   0  0  0  0  0  0  0  0  0  0  0  0
   -1.9840   -4.6570   -1.4440 H   0  0  0  0  0  0  0  0  0  0  0  0
   -1.0140   -2.7730   -1.2260 C   0  0  0  0  0  0  0  0  0  0  0  0
   -0.0390   -3.0020   -2.0290 N   0  0  0  0  0  0  0  0  0  0  0  0
    0.8480   -2.0540   -1.8460 O   0  0  0  0  0  0  0  0  0  0  0  0
    0.4440   -1.1960   -0.9240 C   0  0  0  0  0  0  0  0  0  0  0  0
    1.0840   -0.0550   -0.4500 C   0  0  0  0  0  0  0  0  0  0  0  0
    2.0450    0.2190   -0.8440 H   0  0  0  0  0  0  0  0  0  0  0  0
    0.4490    0.6900    0.5210 C   0  0  0  0  0  0  0  0  0  0  0  0
    0.9100    1.5780    0.9160 H   0  0  0  0  0  0  0  0  0  0  0  0
   -0.8020    0.2930    1.0040 C   0  0  0  0  0  0  0  0  0  0  0  0
   -1.2880    0.8780    1.7640 H   0  0  0  0  0  0  0  0  0  0  0  0
   -1.4190   -0.8420    0.5200 C   0  0  0  0  0  0  0  0  0  0  0  0
   -2.3810   -1.1520    0.8930 H   0  0  0  0  0  0  0  0  0  0  0  0
   -0.7830   -1.6050   -0.4670 C   0  0  0  0  0  0  0  0  0  0  0  0
  1  2  1  0  0  0  0
  2  3  2  0  0  0  0
  2  4  1  0  0  0  0
  4  5  1  0  0  0  0
  4  6  1  0  0  0  0
  4  7  1  0  0  0  0
  7  8  2  0  0  0  0
  7 19  1  0  0  0  0
  8  9  1  0  0  0  0
  9 10  1  0  0  0  0
 10 11  1  0  0  0  0
 10 19  2  0  0  0  0
 11 12  1  0  0  0  0
 11 13  2  0  0  0  0
 13 14  1  0  0  0  0
 13 15  1  0  0  0  0
 15 16  1  0  0  0  0
 15 17  2  0  0  0  0
 17 18  1  0  0  0  0
 17 19  1  0  0  0  0
M  CHG  1   1  -1
M  END
>  <Catalog ID>
Z99600464

>  <a_acc>
1

>  <a_don>
0

>  <a_heavy>
13

>  <logP>
1.5140001

>  <logS>
-2.32215

>  <TPSA>
66.160004

>  <Weight>
176.151

$$$$
Z56928539
  MOE2024           3D

 18 18  0  0  0  0  0  0  0  0999 V2000
    5.1970   -0.1450   -1.0560 O   0  5  0  0  0  0  0  0  0  0  0  0
    4.9500   -0.8500   -0.0690 C   0  0  0  0  0  0  0  0  0  0  0  0
    5.8280   -1.1770    0.7390 O   0  0  0  0  0  0  0  0  0  0  0  0
    3.5450   -1.4140    0.0920 C   0  0  0  0  0  0  0  0  0  0  0  0
    3.6200   -2.3780    0.5560 H   0  0  0  0  0  0  0  0  0  0  0  0
    3.1190   -1.5140   -0.8880 H   0  0  0  0  0  0  0  0  0  0  0  0
    2.6850   -0.6020    0.8970 O   0  0  0  0  0  0  0  0  0  0  0  0
    1.4110   -0.3780    0.4780 C   0  0  0  0  0  0  0  0  0  0  0  0
    0.5220   -1.3980    0.1350 C   0  0  0  0  0  0  0  0  0  0  0  0
    0.9480   -3.0930    0.2670 Cl  0  0  0  0  0  0  0  0  0  0  0  0
   -0.7610   -1.1120   -0.3030 C   0  0  0  0  0  0  0  0  0  0  0  0
   -1.4200   -1.9190   -0.5660 H   0  0  0  0  0  0  0  0  0  0  0  0
   -1.1880    0.2030   -0.3940 C   0  0  0  0  0  0  0  0  0  0  0  0
   -2.1850    0.4260   -0.7360 H   0  0  0  0  0  0  0  0  0  0  0  0
   -0.3280    1.2280   -0.0370 C   0  0  0  0  0  0  0  0  0  0  0  0
   -0.6420    2.2550   -0.0940 H   0  0  0  0  0  0  0  0  0  0  0  0
    0.9530    0.9330    0.3980 C   0  0  0  0  0  0  0  0  0  0  0  0
    1.9860    2.2710    0.8510 Cl  0  0  0  0  0  0  0  0  0  0  0  0
  1  2  1  0  0  0  0
  2  3  2  0  0  0  0
  2  4  1  0  0  0  0
  4  5  1  0  0  0  0
  4  6  1  0  0  0  0
  4  7  1  0  0  0  0
  7  8  1  0  0  0  0
  8  9  1  0  0  0  0
  8 17  2  0  0  0  0
  9 10  1  0  0  0  0
  9 11  2  0  0  0  0
 11 12  1  0  0  0  0
 11 13  1  0  0  0  0
 13 14  1  0  0  0  0
 13 15  2  0  0  0  0
 15 16  1  0  0  0  0
 15 17  1  0  0  0  0
 17 18  1  0  0  0  0
M  CHG  1   1  -1
M  END
>  <Catalog ID>
Z56928539

>  <a_acc>
1

>  <a_don>
0

>  <a_heavy>
13

>  <logP>
2.668

>  <logS>
-3.16013

>  <TPSA>
49.360001

>  <Weight>
220.03099

$$$$
Z119990438
  MOE2024           3D

 18 19  0  0  0  0  0  0  0  0999 V2000
    0.9320   -5.6750    0.0140 O   0  5  0  0  0  0  0  0  0  0  0  0
   -0.0500   -4.9180    0.0180 C   0  0  0  0  0  0  0  0  0  0  0  0
   -1.2040   -5.3850    0.0240 O   0  0  0  0  0  0  0  0  0  0  0  0
    0.1080   -3.4880    0.0150 C   0  0  0  0  0  0  0  0  0  0  0  0
    1.2070   -2.6790    0.0080 C   0  0  0  0  0  0  0  0  0  0  0  0
    2.2320   -3.0050    0.0030 H   0  0  0  0  0  0  0  0  0  0  0  0
    0.7750   -1.3380    0.0090 C   0  0  0  0  0  0  0  0  0  0  0  0
    1.4410   -0.1050    0.0050 C   0  0  0  0  0  0  0  0  0  0  0  0
    2.5150   -0.0960   -0.0010 H   0  0  0  0  0  0  0  0  0  0  0  0
    0.7060    1.0590    0.0080 C   0  0  0  0  0  0  0  0  0  0  0  0
    1.1860    2.0200    0.0040 H   0  0  0  0  0  0  0  0  0  0  0  0
   -0.6920    0.9990    0.0150 C   0  0  0  0  0  0  0  0  0  0  0  0
   -1.5880    2.4990    0.0190 Cl  0  0  0  0  0  0  0  0  0  0  0  0
   -1.3680   -0.1980    0.0200 C   0  0  0  0  0  0  0  0  0  0  0  0
   -2.4410   -0.2330    0.0260 H   0  0  0  0  0  0  0  0  0  0  0  0
   -0.6170   -1.3770    0.0170 C   0  0  0  0  0  0  0  0  0  0  0  0
   -1.0030   -2.6930    0.0200 N   0  0  0  0  0  0  0  0  0  0  0  0
   -1.9490   -3.0950    0.0260 H   0  0  0  0  0  0  0  0  0  0  0  0
  1  2  1  0  0  0  0
  2  3  2  0  0  0  0
  2  4  1  0  0  0  0
  4  5  2  0  0  0  0
  4 17  1  0  0  0  0
  5  6  1  0  0  0  0
  5  7  1  0  0  0  0
  7  8  1  0  0  0  0
  7 16  2  0  0  0  0
  8  9  1  0  0  0  0
  8 10  2  0  0  0  0
 10 11  1  0  0  0  0
 10 12  1  0  0  0  0
 12 13  1  0  0  0  0
 12 14  2  0  0  0  0
 14 15  1  0  0  0  0
 14 16  1  0  0  0  0
 16 17  1  0  0  0  0
 17 18  1  0  0  0  0
M  CHG  1   1  -1
M  END
>  <Catalog ID>
Z119990438

>  <a_acc>
0

>  <a_don>
1

>  <a_heavy>
13

>  <logP>
2.7

>  <logS>
-2.7918401

>  <TPSA>
55.919998

>  <Weight>
194.597

$$$$
Z316118634
  MOE2024           3D

 20 21  0  0  0  0  0  0  0  0999 V2000
   -3.6850   -1.6970   -0.0800 O   0  5  0  0  0  0  0  0  0  0  0  0
   -2.8910   -2.5650    0.3270 C   0  0  0  0  0  0  0  0  0  0  0  0
   -3.3710   -3.5700    0.8870 O   0  0  0  0  0  0  0  0  0  0  0  0
   -1.4520   -2.4880    0.1090 C   0  0  0  0  0  0  0  0  0  0  0  0
   -0.7250   -3.6740   -0.0440 C   0  0  0  0  0  0  0  0  0  0  0  0
   -1.2600   -4.6070    0.0280 H   0  0  0  0  0  0  0  0  0  0  0  0
    0.6360   -3.6840   -0.2870 C   0  0  0  0  0  0  0  0  0  0  0  0
    1.1520   -4.6200   -0.4040 H   0  0  0  0  0  0  0  0  0  0  0  0
    1.3270   -2.4910   -0.3780 C   0  0  0  0  0  0  0  0  0  0  0  0
    2.3840   -2.4800   -0.5690 H   0  0  0  0  0  0  0  0  0  0  0  0
    0.6500   -1.2980   -0.2130 C   0  0  0  0  0  0  0  0  0  0  0  0
    1.3700   -0.1450   -0.2920 O   0  0  0  0  0  0  0  0  0  0  0  0
    0.7450    1.0380    0.1650 C   0  0  0  0  0  0  0  0  0  0  0  0
    1.2750    1.8750   -0.2500 H   0  0  0  0  0  0  0  0  0  0  0  0
    0.8190    1.0620    1.2370 H   0  0  0  0  0  0  0  0  0  0  0  0
   -0.7260    1.0570   -0.2610 C   0  0  0  0  0  0  0  0  0  0  0  0
   -0.8150    1.0680   -1.3330 H   0  0  0  0  0  0  0  0  0  0  0  0
   -1.2400    1.9050    0.1510 H   0  0  0  0  0  0  0  0  0  0  0  0
   -1.3590   -0.1040    0.2160 O   0  0  0  0  0  0  0  0  0  0  0  0
   -0.7290   -1.2900    0.0330 C   0  0  0  0  0  0  0  0  0  0  0  0
  1  2  1  0  0  0  0
  2  3  2  0  0  0  0
  2  4  1  0  0  0  0
  4  5  1  0  0  0  0
  4 20  2  0  0  0  0
  5  6  1  0  0  0  0
  5  7  2  0  0  0  0
  7  8  1  0  0  0  0
  7  9  1  0  0  0  0
  9 10  1  0  0  0  0
  9 11  2  0  0  0  0
 11 12  1  0  0  0  0
 11 20  1  0  0  0  0
 12 13  1  0  0  0  0
 13 14  1  0  0  0  0
 13 15  1  0  0  0  0
 13 16  1  0  0  0  0
 16 17  1  0  0  0  0
 16 18  1  0  0  0  0
 16 19  1  0  0  0  0
 19 20  1  0  0  0  0
M  CHG  1   1  -1
M  END
>  <Catalog ID>
Z316118634

>  <a_acc>
2

>  <a_don>
0

>  <a_heavy>
13

>  <logP>
1.26

>  <logS>
-1.8643301

>  <TPSA>
58.59

>  <Weight>
179.151

$$$$
Z234897299
  MOE2024           3D

 21 22  0  0  0  0  0  0  0  0999 V2000
   -2.9000   -4.5280   -0.0040 C   0  0  0  0  0  0  0  0  0  0  0  0
   -2.0280   -5.1490   -0.0020 H   0  0  0  0  0  0  0  0  0  0  0  0
   -3.4830   -4.7500   -0.8780 H   0  0  0  0  0  0  0  0  0  0  0  0
   -3.4870   -4.7490    0.8670 H   0  0  0  0  0  0  0  0  0  0  0  0
   -2.5540   -3.0530   -0.0050 C   0  0  0  0  0  0  0  0  0  0  0  0
   -3.4950   -2.2980   -0.0060 O   0  0  0  0  0  0  0  0  0  0  0  0
   -1.1780   -2.6270   -0.0030 C   0  0  0  0  0  0  0  0  0  0  0  0
   -0.0270   -3.3770   -0.0030 C   0  0  0  0  0  0  0  0  0  0  0  0
    0.0680   -4.4480   -0.0050 H   0  0  0  0  0  0  0  0  0  0  0  0
    1.0690   -2.5830   -0.0010 N   0  0  0  0  0  0  0  0  0  0  0  0
    2.0500   -2.8820   -0.0010 H   0  0  0  0  0  0  0  0  0  0  0  0
    0.6520   -1.2800    0.0000 C   0  0  0  0  0  0  0  0  0  0  0  0
    1.3930   -0.0960    0.0030 C   0  0  0  0  0  0  0  0  0  0  0  0
    2.4680   -0.1050    0.0040 H   0  0  0  0  0  0  0  0  0  0  0  0
    0.6950    1.0870    0.0040 C   0  0  0  0  0  0  0  0  0  0  0  0
    1.3550    2.2150    0.0060 F   0  0  0  0  0  0  0  0  0  0  0  0
   -0.6990    1.1400    0.0020 C   0  0  0  0  0  0  0  0  0  0  0  0
   -1.1910    2.0960    0.0030 H   0  0  0  0  0  0  0  0  0  0  0  0
   -1.4160   -0.0360    0.0000 C   0  0  0  0  0  0  0  0  0  0  0  0
   -2.4920   -0.0210   -0.0010 H   0  0  0  0  0  0  0  0  0  0  0  0
   -0.7420   -1.2670   -0.0010 C   0  0  0  0  0  0  0  0  0  0  0  0
  1  2  1  0  0  0  0
  1  3  1  0  0  0  0
  1  4  1  0  0  0  0
  1  5  1  0  0  0  0
  5  6  2  0  0  0  0
  5  7  1  0  0  0  0
  7  8  2  0  0  0  0
  7 21  1  0  0  0  0
  8  9  1  0  0  0  0
  8 10  1  0  0  0  0
 10 11  1  0  0  0  0
 10 12  1  0  0  0  0
 12 13  1  0  0  0  0
 12 21  2  0  0  0  0
 13 14  1  0  0  0  0
 13 15  2  0  0  0  0
 15 16  1  0  0  0  0
 15 17  1  0  0  0  0
 17 18  1  0  0  0  0
 17 19  2  0  0  0  0
 19 20  1  0  0  0  0
 19 21  1  0  0  0  0
M  END
>  <Catalog ID>
Z234897299

>  <a_acc>
1

>  <a_don>
1

>  <a_heavy>
13

>  <logP>
2.3150001

>  <logS>
-2.2820301

>  <TPSA>
32.860001

>  <Weight>
177.17799

$$$$
Z385446076
  MOE2024           3D

 18 19  0  0  0  0  0  0  0  0999 V2000
   -3.5250   -2.3580    0.0010 O   0  5  0  0  0  0  0  0  0  0  0  0
   -2.5610   -3.1460    0.0010 C   0  0  0  0  0  0  0  0  0  0  0  0
   -2.7970   -4.3690    0.0010 O   0  0  0  0  0  0  0  0  0  0  0  0
   -1.1870   -2.6720    0.0000 C   0  0  0  0  0  0  0  0  0  0  0  0
   -0.0380   -3.4170    0.0000 C   0  0  0  0  0  0  0  0  0  0  0  0
    0.0160   -4.4920    0.0000 H   0  0  0  0  0  0  0  0  0  0  0  0
    1.0580   -2.6180   -0.0010 N   0  0  0  0  0  0  0  0  0  0  0  0
    2.0330   -2.9270   -0.0010 H   0  0  0  0  0  0  0  0  0  0  0  0
    0.6340   -1.3160   -0.0010 C   0  0  0  0  0  0  0  0  0  0  0  0
    1.3600   -0.1220   -0.0010 C   0  0  0  0  0  0  0  0  0  0  0  0
    2.4340   -0.1290   -0.0020 H   0  0  0  0  0  0  0  0  0  0  0  0
    0.6610    1.0610   -0.0010 C   0  0  0  0  0  0  0  0  0  0  0  0
    1.5300    2.5770   -0.0020 Cl  0  0  0  0  0  0  0  0  0  0  0  0
   -0.7360    1.0900   -0.0010 C   0  0  0  0  0  0  0  0  0  0  0  0
   -1.2430    2.0370   -0.0010 H   0  0  0  0  0  0  0  0  0  0  0  0
   -1.4440   -0.0900    0.0000 C   0  0  0  0  0  0  0  0  0  0  0  0
   -2.5210   -0.1040    0.0000 H   0  0  0  0  0  0  0  0  0  0  0  0
   -0.7600   -1.3130    0.0000 C   0  0  0  0  0  0  0  0  0  0  0  0
  1  2  1  0  0  0  0
  2  3  2  0  0  0  0
  2  4  1  0  0  0  0
  4  5  2  0  0  0  0
  4 18  1  0  0  0  0
  5  6  1  0  0  0  0
  5  7  1  0  0  0  0
  7  8  1  0  0  0  0
  7  9  1  0  0  0  0
  9 10  1  0  0  0  0
  9 18  2  0  0  0  0
 10 11  1  0  0  0  0
 10 12  2  0  0  0  0
 12 13  1  0  0  0  0
 12 14  1  0  0  0  0
 14 15  1  0  0  0  0
 14 16  2  0  0  0  0
 16 17  1  0  0  0  0
 16 18  1  0  0  0  0
M  CHG  1   1  -1
M  END
>  <Catalog ID>
Z385446076

>  <a_acc>
0

>  <a_don>
1

>  <a_heavy>
13

>  <logP>
2.6989999

>  <logS>
-2.6389201

>  <TPSA>
55.919998

>  <Weight>
194.597

$$$$
Z31725206
  MOE2024           3D

 23 23  0  0  0  0  0  0  0  0999 V2000
    3.6500    0.2570    1.2240 O   0  0  0  0  0  0  0  0  0  0  0  0
    3.0170   -0.3100    0.3560 C   0  0  0  0  0  0  0  0  0  0  0  0
    3.7000   -1.0570   -0.5640 N   0  0  0  0  0  0  0  0  0  0  0  0
    3.1980   -1.4340   -1.3690 H   0  0  0  0  0  0  0  0  0  0  0  0
    5.1800   -1.1920   -0.6200 C   0  0  0  0  0  0  0  0  0  0  0  0
    5.6290   -0.2160   -0.5430 H   0  0  0  0  0  0  0  0  0  0  0  0
    5.4570   -1.6330   -1.5620 H   0  0  0  0  0  0  0  0  0  0  0  0
    5.6850   -2.0720    0.5250 C   0  0  0  0  0  0  0  0  0  0  0  0
    5.1390   -2.9990    0.5620 H   0  0  0  0  0  0  0  0  0  0  0  0
    5.5960   -1.5510    1.4640 H   0  0  0  0  0  0  0  0  0  0  0  0
    7.0240   -2.3680    0.3100 O   0  0  0  0  0  0  0  0  0  0  0  0
    7.3950   -2.8450    1.0780 H   0  0  0  0  0  0  0  0  0  0  0  0
    1.5700   -0.1910    0.2940 C   0  0  0  0  0  0  0  0  0  0  0  0
    0.7680   -1.1960   -0.2560 C   0  0  0  0  0  0  0  0  0  0  0  0
    1.2230   -2.0950   -0.6320 H   0  0  0  0  0  0  0  0  0  0  0  0
   -0.6090   -1.0680   -0.3180 C   0  0  0  0  0  0  0  0  0  0  0  0
   -1.2210   -1.8440   -0.7430 H   0  0  0  0  0  0  0  0  0  0  0  0
   -1.2060    0.0750    0.1780 C   0  0  0  0  0  0  0  0  0  0  0  0
   -2.9390    0.2420    0.1000 Cl  0  0  0  0  0  0  0  0  0  0  0  0
   -0.4480    1.0860    0.7360 C   0  0  0  0  0  0  0  0  0  0  0  0
   -0.9310    1.9660    1.1220 H   0  0  0  0  0  0  0  0  0  0  0  0
    0.9270    0.9460    0.7920 C   0  0  0  0  0  0  0  0  0  0  0  0
    1.5240    1.7300    1.2300 H   0  0  0  0  0  0  0  0  0  0  0  0
  1  2  2  0  0  0  0
  2  3  1  0  0  0  0
  2 13  1  0  0  0  0
  3  4  1  0  0  0  0
  3  5  1  0  0  0  0
  5  6  1  0  0  0  0
  5  7  1  0  0  0  0
  5  8  1  0  0  0  0
  8  9  1  0  0  0  0
  8 10  1  0  0  0  0
  8 11  1  0  0  0  0
 11 12  1  0  0  0  0
 13 14  1  0  0  0  0
 13 22  2  0  0  0  0
 14 15  1  0  0  0  0
 14 16  2  0  0  0  0
 16 17  1  0  0  0  0
 16 18  1  0  0  0  0
 18 19  1  0  0  0  0
 18 20  2  0  0  0  0
 20 21  1  0  0  0  0
 20 22  1  0  0  0  0
 22 23  1  0  0  0  0
M  END
>  <Catalog ID>
Z31725206

>  <a_acc>
2

>  <a_don>
2

>  <a_heavy>
13

>  <logP>
1.103

>  <logS>
-2.0627601

>  <TPSA>
49.330002

>  <Weight>
199.63699

$$$$
Z56175684
  MOE2024           3D

 21 22  0  0  0  0  0  0  0  0999 V2000
   -1.4020   -4.4960   -1.4560 O   0  5  0  0  0  0  0  0  0  0  0  0
   -1.0650   -5.4540   -0.7430 C   0  0  0  0  0  0  0  0  0  0  0  0
   -1.3730   -6.6180   -1.0220 O   0  0  0  0  0  0  0  0  0  0  0  0
   -0.2440   -5.2140    0.5220 C   0  0  0  0  0  0  0  0  0  0  0  0
    0.6740   -5.7610    0.4270 H   0  0  0  0  0  0  0  0  0  0  0  0
   -0.7970   -5.6070    1.3520 H   0  0  0  0  0  0  0  0  0  0  0  0
    0.0640   -3.7700    0.7690 N   0  0  0  0  0  0  0  0  0  0  0  0
    0.9480   -3.0910   -0.0350 C   0  0  0  0  0  0  0  0  0  0  0  0
    1.9910   -3.5550   -0.4520 O   0  0  0  0  0  0  0  0  0  0  0  0
    0.4770   -1.7490   -0.2230 C   0  0  0  0  0  0  0  0  0  0  0  0
    0.9710   -0.6700   -0.9450 C   0  0  0  0  0  0  0  0  0  0  0  0
    1.8780   -0.7890   -1.5120 H   0  0  0  0  0  0  0  0  0  0  0  0
    0.2850    0.5330   -0.9240 C   0  0  0  0  0  0  0  0  0  0  0  0
    0.6590    1.3740   -1.4820 H   0  0  0  0  0  0  0  0  0  0  0  0
   -0.8890    0.6580   -0.1890 C   0  0  0  0  0  0  0  0  0  0  0  0
   -1.4180    1.5950   -0.1810 H   0  0  0  0  0  0  0  0  0  0  0  0
   -1.3820   -0.4190    0.5290 C   0  0  0  0  0  0  0  0  0  0  0  0
   -2.2920   -0.3450    1.0990 H   0  0  0  0  0  0  0  0  0  0  0  0
   -0.6910   -1.6250    0.5090 C   0  0  0  0  0  0  0  0  0  0  0  0
   -0.9270   -2.8930    1.1380 C   0  0  0  0  0  0  0  0  0  0  0  0
   -1.8160   -3.1520    1.9270 O   0  0  0  0  0  0  0  0  0  0  0  0
  1  2  1  0  0  0  0
  2  3  2  0  0  0  0
  2  4  1  0  0  0  0
  4  5  1  0  0  0  0
  4  6  1  0  0  0  0
  4  7  1  0  0  0  0
  7  8  1  0  0  0  0
  7 20  1  0  0  0  0
  8  9  2  0  0  0  0
  8 10  1  0  0  0  0
 10 11  1  0  0  0  0
 10 19  2  0  0  0  0
 11 12  1  0  0  0  0
 11 13  2  0  0  0  0
 13 14  1  0  0  0  0
 13 15  1  0  0  0  0
 15 16  1  0  0  0  0
 15 17  2  0  0  0  0
 17 18  1  0  0  0  0
 17 19  1  0  0  0  0
 19 20  1  0  0  0  0
 20 21  2  0  0  0  0
M  CHG  1   1  -1
M  END
>  <Catalog ID>
Z56175684

>  <a_acc>
2

>  <a_don>
0

>  <a_heavy>
15

>  <logP>
0.69700003

>  <logS>
-2.19102

>  <TPSA>
77.510002

>  <Weight>
204.161

$$$$
Z147641710
  MOE2024           3D

 22 23  0  0  0  0  0  0  0  0999 V2000
    2.5730    0.1790    0.0900 O   0  0  0  0  0  0  0  0  0  0  0  0
    1.3670    0.1180    0.0700 C   0  0  0  0  0  0  0  0  0  0  0  0
    0.6630   -1.2490    0.0370 C   0  0  0  0  0  0  0  0  0  0  0  0
    1.0650   -1.8480    0.8330 H   0  0  0  0  0  0  0  0  0  0  0  0
    0.9090   -1.7240   -0.8950 H   0  0  0  0  0  0  0  0  0  0  0  0
   -0.8410   -1.1980    0.1820 N   0  0  0  0  0  0  0  0  0  0  0  0
   -1.3290   -1.9930   -0.2440 H   0  0  0  0  0  0  0  0  0  0  0  0
   -1.4910    0.0400    0.0810 C   0  0  0  0  0  0  0  0  0  0  0  0
   -2.8750    0.0730    0.0330 C   0  0  0  0  0  0  0  0  0  0  0  0
   -3.4240   -0.8500    0.0720 H   0  0  0  0  0  0  0  0  0  0  0  0
   -3.5580    1.2740   -0.0550 C   0  0  0  0  0  0  0  0  0  0  0  0
   -4.6350    1.2570   -0.0910 H   0  0  0  0  0  0  0  0  0  0  0  0
   -2.8690    2.4820   -0.0940 C   0  0  0  0  0  0  0  0  0  0  0  0
   -1.4770    2.4520   -0.0510 C   0  0  0  0  0  0  0  0  0  0  0  0
   -0.9180    3.3700   -0.0860 H   0  0  0  0  0  0  0  0  0  0  0  0
   -0.7850    1.2540    0.0340 C   0  0  0  0  0  0  0  0  0  0  0  0
    0.6180    1.2500    0.0630 N   0  0  0  0  0  0  0  0  0  0  0  0
    1.1350    2.1270    0.0880 H   0  0  0  0  0  0  0  0  0  0  0  0
   -3.6160    3.8210   -0.1930 C   0  0  0  0  0  0  0  0  0  0  0  0
   -3.7290    4.2330   -1.4490 F   0  0  0  0  0  0  0  0  0  0  0  0
   -3.0030    4.7980    0.4660 F   0  0  0  0  0  0  0  0  0  0  0  0
   -4.8500    3.7650    0.2950 F   0  0  0  0  0  0  0  0  0  0  0  0
  1  2  2  0  0  0  0
  2  3  1  0  0  0  0
  2 17  1  0  0  0  0
  3  4  1  0  0  0  0
  3  5  1  0  0  0  0
  3  6  1  0  0  0  0
  6  7  1  0  0  0  0
  6  8  1  0  0  0  0
  8  9  1  0  0  0  0
  8 16  2  0  0  0  0
  9 10  1  0  0  0  0
  9 11  2  0  0  0  0
 11 12  1  0  0  0  0
 11 13  1  0  0  0  0
 13 14  2  0  0  0  0
 13 19  1  0  0  0  0
 14 15  1  0  0  0  0
 14 16  1  0  0  0  0
 16 17  1  0  0  0  0
 17 18  1  0  0  0  0
 19 20  1  0  0  0  0
 19 21  1  0  0  0  0
 19 22  1  0  0  0  0
M  END
>  <Catalog ID>
Z147641710

>  <a_acc>
1

>  <a_don>
2

>  <a_heavy>
15

>  <logP>
1.33576

>  <logS>
-2.58882

>  <TPSA>
41.130001

>  <Weight>
216.16199

$$$$
Z31721188
  MOE2024           3D

 28 29  0  0  0  0  0  0  0  0999 V2000
    2.5720   -2.5440   -0.9120 O   0  0  0  0  0  0  0  0  0  0  0  0
    1.4540   -2.5440   -0.4340 C   0  0  0  0  0  0  0  0  0  0  0  0
    0.7190   -1.2960   -0.3520 C   0  0  0  0  0  0  0  0  0  0  0  0
    1.2630   -0.1820    0.2880 C   0  0  0  0  0  0  0  0  0  0  0  0
    2.2510   -0.2630    0.7090 H   0  0  0  0  0  0  0  0  0  0  0  0
    0.5650    1.0090    0.3860 C   0  0  0  0  0  0  0  0  0  0  0  0
    1.0090    1.8520    0.8870 H   0  0  0  0  0  0  0  0  0  0  0  0
   -0.7010    1.1160   -0.1630 C   0  0  0  0  0  0  0  0  0  0  0  0
   -1.2440    2.0400   -0.0850 H   0  0  0  0  0  0  0  0  0  0  0  0
   -1.2510    0.0230   -0.8120 C   0  0  0  0  0  0  0  0  0  0  0  0
   -2.4750    0.1030   -1.3530 O   0  0  0  0  0  0  0  0  0  0  0  0
   -2.8780    0.9850   -1.2650 H   0  0  0  0  0  0  0  0  0  0  0  0
   -0.5500   -1.1630   -0.9130 C   0  0  0  0  0  0  0  0  0  0  0  0
   -0.9910   -1.9930   -1.4340 H   0  0  0  0  0  0  0  0  0  0  0  0
    0.9250   -3.7340    0.0210 N   0  0  0  0  0  0  0  0  0  0  0  0
   -0.2650   -3.8570    0.9150 C   0  0  0  0  0  0  0  0  0  0  0  0
   -0.7790   -2.9190    1.0150 H   0  0  0  0  0  0  0  0  0  0  0  0
    0.0650   -4.1550    1.8950 H   0  0  0  0  0  0  0  0  0  0  0  0
   -1.2320   -4.9210    0.3720 C   0  0  0  0  0  0  0  0  0  0  0  0
   -1.6630   -4.6020   -0.5610 H   0  0  0  0  0  0  0  0  0  0  0  0
   -2.0240   -5.0980    1.0770 H   0  0  0  0  0  0  0  0  0  0  0  0
   -0.5640   -6.1350    0.1670 O   0  0  0  0  0  0  0  0  0  0  0  0
    0.4910   -6.0580   -0.7530 C   0  0  0  0  0  0  0  0  0  0  0  0
    0.0930   -5.7690   -1.7100 H   0  0  0  0  0  0  0  0  0  0  0  0
    0.9230   -7.0390   -0.8410 H   0  0  0  0  0  0  0  0  0  0  0  0
    1.5560   -5.0500   -0.2880 C   0  0  0  0  0  0  0  0  0  0  0  0
    2.0440   -5.4260    0.5940 H   0  0  0  0  0  0  0  0  0  0  0  0
    2.2990   -4.9410   -1.0580 H   0  0  0  0  0  0  0  0  0  0  0  0
  1  2  2  0  0  0  0
  2  3  1  0  0  0  0
  2 15  1  0  0  0  0
  3  4  1  0  0  0  0
  3 13  2  0  0  0  0
  4  5  1  0  0  0  0
  4  6  2  0  0  0  0
  6  7  1  0  0  0  0
  6  8  1  0  0  0  0
  8  9  1  0  0  0  0
  8 10  2  0  0  0  0
 10 11  1  0  0  0  0
 10 13  1  0  0  0  0
 11 12  1  0  0  0  0
 13 14  1  0  0  0  0
 15 16  1  0  0  0  0
 15 26  1  0  0  0  0
 16 17  1  0  0  0  0
 16 18  1  0  0  0  0
 16 19  1  0  0  0  0
 19 20  1  0  0  0  0
 19 21  1  0  0  0  0
 19 22  1  0  0  0  0
 22 23  1  0  0  0  0
 23 24  1  0  0  0  0
 23 25  1  0  0  0  0
 23 26  1  0  0  0  0
 26 27  1  0  0  0  0
 26 28  1  0  0  0  0
M  END
>  <Catalog ID>
Z31721188

>  <a_acc>
3

>  <a_don>
1

>  <a_heavy>
15

>  <logP>
0.69700003

>  <logS>
-1.35455

>  <TPSA>
49.77

>  <Weight>
207.22899

$$$$
Z808584750
  MOE2024           3D

 24 25  0  0  0  0  0  0  0  0999 V2000
   -0.3250   -4.0550   -0.5660 C   0  0  0  0  0  0  0  0  0  0  0  0
   -0.3150   -4.9760   -1.1200 H   0  0  0  0  0  0  0  0  0  0  0  0
   -0.7160   -3.2680   -1.1840 H   0  0  0  0  0  0  0  0  0  0  0  0
   -0.9270   -4.1710    0.3140 H   0  0  0  0  0  0  0  0  0  0  0  0
    1.0480   -3.7240   -0.1670 N   0  0  0  0  0  0  0  0  0  0  0  0
    1.9730   -4.6900   -0.1000 N   0  0  0  0  0  0  0  0  0  0  0  0
    3.0690   -4.0570    0.1850 C   0  0  0  0  0  0  0  0  0  0  0  0
    4.0250   -4.5390    0.3130 H   0  0  0  0  0  0  0  0  0  0  0  0
    2.9010   -2.6820    0.3100 C   0  0  0  0  0  0  0  0  0  0  0  0
    4.0160   -1.8090    0.6070 C   0  0  0  0  0  0  0  0  0  0  0  0
    3.9000   -0.5710    0.6280 O   0  5  0  0  0  0  0  0  0  0  0  0
    5.1390   -2.2990    0.8300 O   0  0  0  0  0  0  0  0  0  0  0  0
    1.5560   -2.4910    0.0900 C   0  0  0  0  0  0  0  0  0  0  0  0
    0.7700   -1.2800    0.0920 C   0  0  0  0  0  0  0  0  0  0  0  0
    1.1650   -0.1650   -0.6400 C   0  0  0  0  0  0  0  0  0  0  0  0
    2.1020   -0.2050   -1.1690 H   0  0  0  0  0  0  0  0  0  0  0  0
    0.3940    0.9820   -0.6830 C   0  0  0  0  0  0  0  0  0  0  0  0
    0.7320    1.8260   -1.2570 H   0  0  0  0  0  0  0  0  0  0  0  0
   -0.7960    1.0430    0.0190 C   0  0  0  0  0  0  0  0  0  0  0  0
   -1.3960    1.9350   -0.0140 H   0  0  0  0  0  0  0  0  0  0  0  0
   -1.2010   -0.0440    0.7740 C   0  0  0  0  0  0  0  0  0  0  0  0
   -2.1160    0.0040    1.3360 H   0  0  0  0  0  0  0  0  0  0  0  0
   -0.4200   -1.1850    0.8140 C   0  0  0  0  0  0  0  0  0  0  0  0
   -0.7270   -2.0160    1.4200 H   0  0  0  0  0  0  0  0  0  0  0  0
  1  2  1  0  0  0  0
  1  3  1  0  0  0  0
  1  4  1  0  0  0  0
  1  5  1  0  0  0  0
  5  6  1  0  0  0  0
  5 13  1  0  0  0  0
  6  7  2  0  0  0  0
  7  8  1  0  0  0  0
  7  9  1  0  0  0  0
  9 10  1  0  0  0  0
  9 13  2  0  0  0  0
 10 11  1  0  0  0  0
 10 12  2  0  0  0  0
 13 14  1  0  0  0  0
 14 15  1  0  0  0  0
 14 23  2  0  0  0  0
 15 16  1  0  0  0  0
 15 17  2  0  0  0  0
 17 18  1  0  0  0  0
 17 19  1  0  0  0  0
 19 20  1  0  0  0  0
 19 21  2  0  0  0  0
 21 22  1  0  0  0  0
 21 23  1  0  0  0  0
 23 24  1  0  0  0  0
M  CHG  1  11  -1
M  END
>  <Catalog ID>
Z808584750

>  <a_acc>
1

>  <a_don>
0

>  <a_heavy>
15

>  <logP>
1.599

>  <logS>
-2.3399601

>  <TPSA>
57.950001

>  <Weight>
201.205

$$$$
Z1509140701
  MOE2024           3D

 31 33  0  0  0  0  0  0  0  0999 V2000
    0.1270    0.1500   -1.8050 C   0  0  0  0  0  0  0  0  0  0  0  0
    0.8520    0.0690   -2.5960 H   0  0  0  0  0  0  0  0  0  0  0  0
   -0.4670    1.2610   -1.3090 C   0  0  0  0  0  0  0  0  0  0  0  0
   -0.3160    2.2750   -1.6240 H   0  0  0  0  0  0  0  0  0  0  0  0
   -1.3480    0.8620   -0.2750 C   0  0  0  0  0  0  0  0  0  0  0  0
   -2.2240    1.5490    0.5930 C   0  0  0  0  0  0  0  0  0  0  0  0
   -2.9500    0.8080    1.5050 C   0  0  0  0  0  0  0  0  0  0  0  0
   -3.6220    1.3120    2.1750 H   0  0  0  0  0  0  0  0  0  0  0  0
   -2.8340   -0.5830    1.5780 C   0  0  0  0  0  0  0  0  0  0  0  0
   -3.4180   -1.1220    2.3020 H   0  0  0  0  0  0  0  0  0  0  0  0
   -1.9820   -1.2560    0.7330 C   0  0  0  0  0  0  0  0  0  0  0  0
   -1.8850   -2.3260    0.7800 H   0  0  0  0  0  0  0  0  0  0  0  0
   -1.2390   -0.5230   -0.1950 C   0  0  0  0  0  0  0  0  0  0  0  0
   -0.3340   -0.9470   -1.1350 N   0  0  0  0  0  0  0  0  0  0  0  0
   -0.0610   -1.9220   -1.2950 H   0  0  0  0  0  0  0  0  0  0  0  0
   -2.3740    2.9340    0.5560 N   0  0  0  0  0  0  0  0  0  0  0  0
   -1.2000    3.7230    1.0260 C   0  0  0  0  0  0  0  0  0  0  0  0
   -0.3930    3.6330    0.3200 H   0  0  0  0  0  0  0  0  0  0  0  0
   -0.8590    3.3210    1.9660 H   0  0  0  0  0  0  0  0  0  0  0  0
   -1.5800    5.2070    1.2080 C   0  0  0  0  0  0  0  0  0  0  0  0
   -0.6940    5.7710    1.4510 H   0  0  0  0  0  0  0  0  0  0  0  0
   -2.2540    5.2740    2.0470 H   0  0  0  0  0  0  0  0  0  0  0  0
   -2.2440    5.7840   -0.0160 N   0  3  0  0  0  0  0  0  0  0  0  0
   -1.5620    5.8080   -0.7830 H   0  0  0  0  0  0  0  0  0  0  0  0
   -2.5390    6.7510    0.1680 H   0  0  0  0  0  0  0  0  0  0  0  0
   -3.4300    4.9590   -0.4470 C   0  0  0  0  0  0  0  0  0  0  0  0
   -3.8420    5.3500   -1.3630 H   0  0  0  0  0  0  0  0  0  0  0  0
   -4.1980    5.0120    0.3080 H   0  0  0  0  0  0  0  0  0  0  0  0
   -3.0680    3.4730   -0.6480 C   0  0  0  0  0  0  0  0  0  0  0  0
   -3.9680    2.9040   -0.8190 H   0  0  0  0  0  0  0  0  0  0  0  0
   -2.4400    3.3590   -1.5140 H   0  0  0  0  0  0  0  0  0  0  0  0
  1  2  1  0  0  0  0
  1  3  2  0  0  0  0
  1 14  1  0  0  0  0
  3  4  1  0  0  0  0
  3  5  1  0  0  0  0
  5  6  1  0  0  0  0
  5 13  2  0  0  0  0
  6  7  2  0  0  0  0
  6 16  1  0  0  0  0
  7  8  1  0  0  0  0
  7  9  1  0  0  0  0
  9 10  1  0  0  0  0
  9 11  2  0  0  0  0
 11 12  1  0  0  0  0
 11 13  1  0  0  0  0
 13 14  1  0  0  0  0
 14 15  1  0  0  0  0
 16 17  1  0  0  0  0
 16 29  1  0  0  0  0
 17 18  1  0  0  0  0
 17 19  1  0  0  0  0
 17 20  1  0  0  0  0
 20 21  1  0  0  0  0
 20 22  1  0  0  0  0
 20 23  1  0  0  0  0
 23 24  1  0  0  0  0
 23 25  1  0  0  0  0
 23 26  1  0  0  0  0
 26 27  1  0  0  0  0
 26 28  1  0  0  0  0
 26 29  1  0  0  0  0
 29 30  1  0  0  0  0
 29 31  1  0  0  0  0
M  CHG  1  23   1
M  END
>  <Catalog ID>
Z1509140701

>  <a_acc>
0

>  <a_don>
1

>  <a_heavy>
15

>  <logP>
1.4450001

>  <logS>
-1.49358

>  <TPSA>
35.639999

>  <Weight>
202.28099

$$$$
Z28269747
  MOE2024           3D

 32 33  0  0  0  0  0  0  0  0999 V2000
    3.2630   -1.4500   -0.4210 C   0  0  0  0  0  0  0  0  0  0  0  0
    3.5200   -1.4640    0.6210 H   0  0  0  0  0  0  0  0  0  0  0  0
    4.1680   -1.5020   -0.9980 H   0  0  0  0  0  0  0  0  0  0  0  0
    2.6520   -2.2990   -0.6620 H   0  0  0  0  0  0  0  0  0  0  0  0
    2.5240   -0.1750   -0.7520 C   0  0  0  0  0  0  0  0  0  0  0  0
    2.9830    0.5200   -1.6250 O   0  0  0  0  0  0  0  0  0  0  0  0
    1.3800    0.1610   -0.0790 N   0  0  0  0  0  0  0  0  0  0  0  0
    0.6870   -0.6790    0.9500 C   0  0  0  0  0  0  0  0  0  0  0  0
    0.7020   -0.1580    1.8920 H   0  0  0  0  0  0  0  0  0  0  0  0
    1.1870   -1.6190    1.0850 H   0  0  0  0  0  0  0  0  0  0  0  0
   -0.7780   -0.9450    0.5580 C   0  0  0  0  0  0  0  0  0  0  0  0
   -1.2740   -1.4650    1.3600 H   0  0  0  0  0  0  0  0  0  0  0  0
   -0.8030   -1.5740   -0.3150 H   0  0  0  0  0  0  0  0  0  0  0  0
   -1.5050    0.3280    0.2780 N   0  0  0  0  0  0  0  0  0  0  0  0
   -0.8180    1.1560   -0.7610 C   0  0  0  0  0  0  0  0  0  0  0  0
   -1.3410    2.0900   -0.8720 H   0  0  0  0  0  0  0  0  0  0  0  0
   -0.8420    0.6450   -1.7070 H   0  0  0  0  0  0  0  0  0  0  0  0
    0.6450    1.4330   -0.3770 C   0  0  0  0  0  0  0  0  0  0  0  0
    1.1220    1.9690   -1.1790 H   0  0  0  0  0  0  0  0  0  0  0  0
    0.6640    2.0620    0.4950 H   0  0  0  0  0  0  0  0  0  0  0  0
   -2.8850    0.2100    0.1370 C   0  0  0  0  0  0  0  0  0  0  0  0
   -3.7180    0.7560    1.1060 C   0  0  0  0  0  0  0  0  0  0  0  0
   -3.2690    1.2600    1.9420 H   0  0  0  0  0  0  0  0  0  0  0  0
   -5.0930    0.6540    0.9980 C   0  0  0  0  0  0  0  0  0  0  0  0
   -5.7220    1.0820    1.7570 H   0  0  0  0  0  0  0  0  0  0  0  0
   -5.6430   -0.0010   -0.0920 C   0  0  0  0  0  0  0  0  0  0  0  0
   -6.9790   -0.1110   -0.2120 O   0  0  0  0  0  0  0  0  0  0  0  0
   -7.4520    0.3060    0.5290 H   0  0  0  0  0  0  0  0  0  0  0  0
   -4.8290   -0.5500   -1.0670 C   0  0  0  0  0  0  0  0  0  0  0  0
   -5.2740   -1.0540   -1.9050 H   0  0  0  0  0  0  0  0  0  0  0  0
   -3.4550   -0.4440   -0.9510 C   0  0  0  0  0  0  0  0  0  0  0  0
   -2.8190   -0.8680   -1.7050 H   0  0  0  0  0  0  0  0  0  0  0  0
  1  2  1  0  0  0  0
  1  3  1  0  0  0  0
  1  4  1  0  0  0  0
  1  5  1  0  0  0  0
  5  6  2  0  0  0  0
  5  7  1  0  0  0  0
  7  8  1  0  0  0  0
  7 18  1  0  0  0  0
  8  9  1  0  0  0  0
  8 10  1  0  0  0  0
  8 11  1  0  0  0  0
 11 12  1  0  0  0  0
 11 13  1  0  0  0  0
 11 14  1  0  0  0  0
 14 15  1  0  0  0  0
 14 21  1  0  0  0  0
 15 16  1  0  0  0  0
 15 17  1  0  0  0  0
 15 18  1  0  0  0  0
 18 19  1  0  0  0  0
 18 20  1  0  0  0  0
 21 22  1  0  0  0  0
 21 31  2  0  0  0  0
 22 23  1  0  0  0  0
 22 24  2  0  0  0  0
 24 25  1  0  0  0  0
 24 26  1  0  0  0  0
 26 27  1  0  0  0  0
 26 29  2  0  0  0  0
 27 28  1  0  0  0  0
 29 30  1  0  0  0  0
 29 31  1  0  0  0  0
 31 32  1  0  0  0  0
M  END
>  <Catalog ID>
Z28269747

>  <a_acc>
2

>  <a_don>
1

>  <a_heavy>
16

>  <logP>
0.611

>  <logS>
-1.17312

>  <TPSA>
43.779999

>  <Weight>
220.272

$$$$
Z68590124
  MOE2024           3D

 17 17  0  0  0  0  0  0  0  0999 V2000
    3.6590   -1.1440   -0.0180 N   0  0  0  0  0  0  0  0  0  0  0  0
    4.6780   -1.0770   -0.0190 H   0  0  0  0  0  0  0  0  0  0  0  0
    3.2630   -2.0810   -0.0430 H   0  0  0  0  0  0  0  0  0  0  0  0
    2.9370    0.0020    0.0000 C   0  0  0  0  0  0  0  0  0  0  0  0
    3.5960    1.0230    0.0170 O   0  0  0  0  0  0  0  0  0  0  0  0
    1.4790    0.0160    0.0000 C   0  0  0  0  0  0  0  0  0  0  0  0
    0.7330   -1.1690   -0.0010 C   0  0  0  0  0  0  0  0  0  0  0  0
    1.2340   -2.1180    0.0010 H   0  0  0  0  0  0  0  0  0  0  0  0
   -0.6500   -1.1630   -0.0020 C   0  0  0  0  0  0  0  0  0  0  0  0
   -1.1960   -2.0910   -0.0030 H   0  0  0  0  0  0  0  0  0  0  0  0
   -1.3410    0.0360   -0.0030 C   0  0  0  0  0  0  0  0  0  0  0  0
   -2.4170    0.0430   -0.0040 H   0  0  0  0  0  0  0  0  0  0  0  0
   -0.6380    1.2240   -0.0010 C   0  0  0  0  0  0  0  0  0  0  0  0
   -1.1580    2.1660   -0.0020 H   0  0  0  0  0  0  0  0  0  0  0  0
    0.7460    1.2150    0.0000 C   0  0  0  0  0  0  0  0  0  0  0  0
    1.3700    2.4030    0.0030 O   0  0  0  0  0  0  0  0  0  0  0  0
    2.3540    2.2860    0.0080 H   0  0  0  0  0  0  0  0  0  0  0  0
  1  2  1  0  0  0  0
  1  3  1  0  0  0  0
  1  4  1  0  0  0  0
  4  5  2  0  0  0  0
  4  6  1  0  0  0  0
  6  7  1  0  0  0  0
  6 15  2  0  0  0  0
  7  8  1  0  0  0  0
  7  9  2  0  0  0  0
  9 10  1  0  0  0  0
  9 11  1  0  0  0  0
 11 12  1  0  0  0  0
 11 13  2  0  0  0  0
 13 14  1  0  0  0  0
 13 15  1  0  0  0  0
 15 16  1  0  0  0  0
 16 17  1  0  0  0  0
M  END
>  <Catalog ID>
Z68590124

>  <a_acc>
2

>  <a_don>
2

>  <a_heavy>
10

>  <logP>
0.53899997

>  <logS>
-1.27505

>  <TPSA>
63.32

>  <Weight>
137.138

$$$$
Z104498098
  MOE2024           3D

 15 15  0  0  0  0  0  0  0  0999 V2000
    3.5240    1.0570    0.0000 O   0  5  0  0  0  0  0  0  0  0  0  0
    2.8820   -0.0090    0.0000 C   0  0  0  0  0  0  0  0  0  0  0  0
    3.5110   -1.0830   -0.0010 O   0  0  0  0  0  0  0  0  0  0  0  0
    1.4230   -0.0020    0.0000 C   0  0  0  0  0  0  0  0  0  0  0  0
    0.6900   -1.1930    0.0000 C   0  0  0  0  0  0  0  0  0  0  0  0
    1.2320   -2.1240    0.0000 H   0  0  0  0  0  0  0  0  0  0  0  0
   -0.6930   -1.1960    0.0010 C   0  0  0  0  0  0  0  0  0  0  0  0
   -1.2200   -2.1300    0.0010 H   0  0  0  0  0  0  0  0  0  0  0  0
   -1.3800    0.0070    0.0010 C   0  0  0  0  0  0  0  0  0  0  0  0
   -2.7200    0.0180    0.0010 O   0  0  0  0  0  0  0  0  0  0  0  0
   -3.1000   -0.8760    0.0020 H   0  0  0  0  0  0  0  0  0  0  0  0
   -0.6850    1.2030    0.0010 C   0  0  0  0  0  0  0  0  0  0  0  0
   -1.2240    2.1310    0.0020 H   0  0  0  0  0  0  0  0  0  0  0  0
    0.6980    1.1930    0.0010 C   0  0  0  0  0  0  0  0  0  0  0  0
    1.2440    2.1220    0.0010 H   0  0  0  0  0  0  0  0  0  0  0  0
  1  2  1  0  0  0  0
  2  3  2  0  0  0  0
  2  4  1  0  0  0  0
  4  5  1  0  0  0  0
  4 14  2  0  0  0  0
  5  6  1  0  0  0  0
  5  7  2  0  0  0  0
  7  8  1  0  0  0  0
  7  9  1  0  0  0  0
  9 10  1  0  0  0  0
  9 12  2  0  0  0  0
 10 11  1  0  0  0  0
 12 13  1  0  0  0  0
 12 14  1  0  0  0  0
 14 15  1  0  0  0  0
M  CHG  1   1  -1
M  END
>  <Catalog ID>
Z104498098

>  <a_acc>
1

>  <a_don>
1

>  <a_heavy>
10

>  <logP>
1.396

>  <logS>
-1.25278

>  <TPSA>
60.360001

>  <Weight>
137.114

$$$$
Z57221419
  MOE2024           3D

 21 21  0  0  0  0  0  0  0  0999 V2000
    3.7560   -1.1930   -0.0020 C   0  0  0  0  0  0  0  0  0  0  0  0
    3.2190   -2.1170    0.0010 H   0  0  0  0  0  0  0  0  0  0  0  0
    4.3880   -1.1650    0.8670 H   0  0  0  0  0  0  0  0  0  0  0  0
    4.3840   -1.1680   -0.8740 H   0  0  0  0  0  0  0  0  0  0  0  0
    2.8690    0.0410   -0.0030 C   0  0  0  0  0  0  0  0  0  0  0  0
    3.4690    1.0850   -0.0040 O   0  0  0  0  0  0  0  0  0  0  0  0
    1.4160   -0.0210   -0.0010 C   0  0  0  0  0  0  0  0  0  0  0  0
    0.6700   -1.2060   -0.0010 C   0  0  0  0  0  0  0  0  0  0  0  0
    1.1480   -2.1650   -0.0020 H   0  0  0  0  0  0  0  0  0  0  0  0
   -0.7110   -1.1930    0.0000 C   0  0  0  0  0  0  0  0  0  0  0  0
   -1.2700   -2.1120    0.0000 H   0  0  0  0  0  0  0  0  0  0  0  0
   -1.3990    0.0070    0.0010 C   0  0  0  0  0  0  0  0  0  0  0  0
   -2.7350   -0.0350    0.0020 O   0  0  0  0  0  0  0  0  0  0  0  0
   -3.1450    0.8460    0.0020 H   0  0  0  0  0  0  0  0  0  0  0  0
   -0.7020    1.2100    0.0010 C   0  0  0  0  0  0  0  0  0  0  0  0
   -1.3780    2.5770    0.0010 C   0  0  0  0  0  0  0  0  0  0  0  0
   -2.4490    2.5100    0.0020 H   0  0  0  0  0  0  0  0  0  0  0  0
   -1.0770    3.1280   -0.8710 H   0  0  0  0  0  0  0  0  0  0  0  0
   -1.0750    3.1280    0.8740 H   0  0  0  0  0  0  0  0  0  0  0  0
    0.6810    1.1720    0.0000 C   0  0  0  0  0  0  0  0  0  0  0  0
    1.2240    2.1020   -0.0010 H   0  0  0  0  0  0  0  0  0  0  0  0
  1  2  1  0  0  0  0
  1  3  1  0  0  0  0
  1  4  1  0  0  0  0
  1  5  1  0  0  0  0
  5  6  2  0  0  0  0
  5  7  1  0  0  0  0
  7  8  1  0  0  0  0
  7 20  2  0  0  0  0
  8  9  1  0  0  0  0
  8 10  2  0  0  0  0
 10 11  1  0  0  0  0
 10 12  1  0  0  0  0
 12 13  1  0  0  0  0
 12 15  2  0  0  0  0
 13 14  1  0  0  0  0
 15 16  1  0  0  0  0
 15 20  1  0  0  0  0
 16 17  1  0  0  0  0
 16 18  1  0  0  0  0
 16 19  1  0  0  0  0
 20 21  1  0  0  0  0
M  END
>  <Catalog ID>
Z57221419

>  <a_acc>
2

>  <a_don>
1

>  <a_heavy>
11

>  <logP>
1.784

>  <logS>
-1.49567

>  <TPSA>
37.299999

>  <Weight>
150.177

$$$$
Z57033885
  MOE2024           3D

 14 14  0  0  0  0  0  0  0  0999 V2000
    2.4750    0.1000   -0.9040 O   0  0  0  0  0  0  0  0  0  0  0  0
    1.3820    0.0680   -0.4040 C   0  0  0  0  0  0  0  0  0  0  0  0
    0.7970   -1.2530    0.0600 C   0  0  0  0  0  0  0  0  0  0  0  0
    1.1070   -1.4190    1.0750 H   0  0  0  0  0  0  0  0  0  0  0  0
    1.1900   -2.0520   -0.5400 H   0  0  0  0  0  0  0  0  0  0  0  0
   -0.7350   -1.2540   -0.0090 C   0  0  0  0  0  0  0  0  0  0  0  0
   -1.1330   -2.0420    0.6090 H   0  0  0  0  0  0  0  0  0  0  0  0
   -1.0540   -1.4170   -1.0250 H   0  0  0  0  0  0  0  0  0  0  0  0
   -1.2530    0.0560    0.4460 N   0  0  0  0  0  0  0  0  0  0  0  0
   -2.2380    0.1260    0.7120 H   0  0  0  0  0  0  0  0  0  0  0  0
   -0.6110    1.2250    0.2370 C   0  0  0  0  0  0  0  0  0  0  0  0
   -1.1670    2.2780    0.4350 O   0  0  0  0  0  0  0  0  0  0  0  0
    0.6580    1.1960   -0.2240 N   0  0  0  0  0  0  0  0  0  0  0  0
    1.0780    2.0860   -0.4650 H   0  0  0  0  0  0  0  0  0  0  0  0
  1  2  2  0  0  0  0
  2  3  1  0  0  0  0
  2 13  1  0  0  0  0
  3  4  1  0  0  0  0
  3  5  1  0  0  0  0
  3  6  1  0  0  0  0
  6  7  1  0  0  0  0
  6  8  1  0  0  0  0
  6  9  1  0  0  0  0
  9 10  1  0  0  0  0
  9 11  1  0  0  0  0
 11 12  2  0  0  0  0
 11 13  1  0  0  0  0
 13 14  1  0  0  0  0
M  END
>  <Catalog ID>
Z57033885

>  <a_acc>
2

>  <a_don>
2

>  <a_heavy>
8

>  <logP>
-1.226

>  <logS>
-0.022399999

>  <TPSA>
58.200001

>  <Weight>
114.104

$$$$
Z45415560
  MOE2024           3D

 14 14  0  0  0  0  0  0  0  0999 V2000
    3.9040    0.1520   -0.1570 N   0  0  0  0  0  0  0  0  0  0  0  0
    4.2880   -0.7860   -0.2450 H   0  0  0  0  0  0  0  0  0  0  0  0
    4.6680    0.7410    0.1630 H   0  0  0  0  0  0  0  0  0  0  0  0
    2.9380    0.0340    1.1810 S   0  0  0  0  0  0  0  0  0  0  0  0
    3.3030   -1.2580    1.7070 O   0  0  0  0  0  0  0  0  0  0  0  0
    3.2510    1.2350    1.9140 O   0  0  0  0  0  0  0  0  0  0  0  0
    1.2540    0.0810    0.5210 C   0  0  0  0  0  0  0  0  0  0  0  0
    0.4350    1.0970    0.1750 C   0  0  0  0  0  0  0  0  0  0  0  0
    0.6840    2.1420    0.2620 H   0  0  0  0  0  0  0  0  0  0  0  0
   -0.8380    0.6920   -0.3390 C   0  0  0  0  0  0  0  0  0  0  0  0
   -1.5710    1.4210   -0.6410 H   0  0  0  0  0  0  0  0  0  0  0  0
   -0.9940   -0.6420   -0.3930 C   0  0  0  0  0  0  0  0  0  0  0  0
   -1.8120   -1.2590   -0.7210 H   0  0  0  0  0  0  0  0  0  0  0  0
    0.4450   -1.4510    0.1960 S   0  0  0  0  0  0  0  0  0  0  0  0
  1  2  1  0  0  0  0
  1  3  1  0  0  0  0
  1  4  1  0  0  0  0
  4  5  2  0  0  0  0
  4  6  2  0  0  0  0
  4  7  1  0  0  0  0
  7  8  2  0  0  0  0
  7 14  1  0  0  0  0
  8  9  1  0  0  0  0
  8 10  1  0  0  0  0
 10 11  1  0  0  0  0
 10 12  2  0  0  0  0
 12 13  1  0  0  0  0
 12 14  1  0  0  0  0
M  END
>  <Catalog ID>
Z45415560

>  <a_acc>
2

>  <a_don>
1

>  <a_heavy>
9

>  <logP>
0.197

>  <logS>
-1.5765001

>  <TPSA>
60.16

>  <Weight>
163.22101

$$$$
Z33546644
  MOE2024           3D

 14 14  0  0  0  0  0  0  0  0999 V2000
    3.5130    0.2020   -1.2860 N   0  0  0  0  0  0  0  0  0  0  0  0
    4.5190    0.0620   -1.3750 H   0  0  0  0  0  0  0  0  0  0  0  0
    3.0270    0.6960   -2.0380 H   0  0  0  0  0  0  0  0  0  0  0  0
    2.8460   -0.2590   -0.1960 C   0  0  0  0  0  0  0  0  0  0  0  0
    3.5210   -0.8310    0.6360 O   0  0  0  0  0  0  0  0  0  0  0  0
    1.4050   -0.0760   -0.0350 C   0  0  0  0  0  0  0  0  0  0  0  0
    0.7770   -0.5710    1.1160 C   0  0  0  0  0  0  0  0  0  0  0  0
    1.3900   -1.0720    1.8450 H   0  0  0  0  0  0  0  0  0  0  0  0
   -0.5150   -0.4770    1.3910 N   0  0  0  0  0  0  0  0  0  0  0  0
   -1.1760    0.1530    0.4370 C   0  0  0  0  0  0  0  0  0  0  0  0
   -2.2370    0.2770    0.5730 H   0  0  0  0  0  0  0  0  0  0  0  0
   -0.5850    0.6560   -0.7150 C   0  0  0  0  0  0  0  0  0  0  0  0
   -1.2090    1.1550   -1.4350 H   0  0  0  0  0  0  0  0  0  0  0  0
    0.7030    0.5630   -0.9900 N   0  0  0  0  0  0  0  0  0  0  0  0
  1  2  1  0  0  0  0
  1  3  1  0  0  0  0
  1  4  1  0  0  0  0
  4  5  2  0  0  0  0
  4  6  1  0  0  0  0
  6  7  1  0  0  0  0
  6 14  2  0  0  0  0
  7  8  1  0  0  0  0
  7  9  2  0  0  0  0
  9 10  1  0  0  0  0
 10 11  1  0  0  0  0
 10 12  2  0  0  0  0
 12 13  1  0  0  0  0
 12 14  1  0  0  0  0
M  END
>  <Catalog ID>
Z33546644

>  <a_acc>
3

>  <a_don>
1

>  <a_heavy>
9

>  <logP>
-1.45947

>  <logS>
0.72636002

>  <TPSA>
68.870003

>  <Weight>
123.115

$$$$
Z56895714
  MOE2024           3D

 14 14  0  0  0  0  0  0  0  0999 V2000
    2.5570   -0.2060    0.0000 C   0  0  0  0  0  0  0  0  0  0  0  0
    3.0620    0.7420    0.0000 H   0  0  0  0  0  0  0  0  0  0  0  0
    2.8430   -0.7610   -0.8750 H   0  0  0  0  0  0  0  0  0  0  0  0
    2.8420   -0.7610    0.8740 H   0  0  0  0  0  0  0  0  0  0  0  0
    1.0600   -0.0030    0.0000 C   0  0  0  0  0  0  0  0  0  0  0  0
    0.3160    1.1220    0.0000 C   0  0  0  0  0  0  0  0  0  0  0  0
    0.6380    2.1460    0.0000 H   0  0  0  0  0  0  0  0  0  0  0  0
   -1.0120    0.6900    0.0000 C   0  0  0  0  0  0  0  0  0  0  0  0
   -1.8910    1.3090    0.0000 H   0  0  0  0  0  0  0  0  0  0  0  0
   -0.9910   -0.6720   -0.0010 C   0  0  0  0  0  0  0  0  0  0  0  0
    0.2850   -1.0650   -0.0010 O   0  0  0  0  0  0  0  0  0  0  0  0
   -2.1130   -1.6010   -0.0010 C   0  0  0  0  0  0  0  0  0  0  0  0
   -1.9590   -2.8380   -0.0010 O   0  5  0  0  0  0  0  0  0  0  0  0
   -3.2790   -1.1550   -0.0010 O   0  0  0  0  0  0  0  0  0  0  0  0
  1  2  1  0  0  0  0
  1  3  1  0  0  0  0
  1  4  1  0  0  0  0
  1  5  1  0  0  0  0
  5  6  2  0  0  0  0
  5 11  1  0  0  0  0
  6  7  1  0  0  0  0
  6  8  1  0  0  0  0
  8  9  1  0  0  0  0
  8 10  2  0  0  0  0
 10 11  1  0  0  0  0
 10 12  1  0  0  0  0
 12 13  1  0  0  0  0
 12 14  2  0  0  0  0
M  CHG  1  13  -1
M  END
>  <Catalog ID>
Z56895714

>  <a_acc>
0

>  <a_don>
0

>  <a_heavy>
9

>  <logP>
0.59600002

>  <logS>
-1.67969

>  <TPSA>
53.27

>  <Weight>
125.103

$$$$
Z104477750
  MOE2024           3D

 14 14  0  0  0  0  0  0  0  0999 V2000
    4.0440    0.0460    0.0070 N   0  0  0  0  0  0  0  0  0  0  0  0
    2.9040   -0.0020    0.0050 C   0  0  0  0  0  0  0  0  0  0  0  0
    1.4720    0.0100    0.0030 C   0  0  0  0  0  0  0  0  0  0  0  0
    0.7550   -1.1820   -0.0010 C   0  0  0  0  0  0  0  0  0  0  0  0
    1.2820   -2.1220   -0.0020 H   0  0  0  0  0  0  0  0  0  0  0  0
   -0.6290   -1.1810   -0.0020 C   0  0  0  0  0  0  0  0  0  0  0  0
   -1.1710   -2.1110   -0.0050 H   0  0  0  0  0  0  0  0  0  0  0  0
   -1.3200    0.0180    0.0000 C   0  0  0  0  0  0  0  0  0  0  0  0
   -2.3970    0.0220   -0.0010 H   0  0  0  0  0  0  0  0  0  0  0  0
   -0.6240    1.2130    0.0040 C   0  0  0  0  0  0  0  0  0  0  0  0
   -1.1520    2.1510    0.0050 H   0  0  0  0  0  0  0  0  0  0  0  0
    0.7600    1.2120    0.0050 C   0  0  0  0  0  0  0  0  0  0  0  0
    1.3840    2.4070    0.0090 O   0  0  0  0  0  0  0  0  0  0  0  0
    2.3600    2.3690    0.0100 H   0  0  0  0  0  0  0  0  0  0  0  0
  1  2  3  0  0  0  0
  2  3  1  0  0  0  0
  3  4  1  0  0  0  0
  3 12  2  0  0  0  0
  4  5  1  0  0  0  0
  4  6  2  0  0  0  0
  6  7  1  0  0  0  0
  6  8  1  0  0  0  0
  8  9  1  0  0  0  0
  8 10  2  0  0  0  0
 10 11  1  0  0  0  0
 10 12  1  0  0  0  0
 12 13  1  0  0  0  0
 13 14  1  0  0  0  0
M  END
>  <Catalog ID>
Z104477750

>  <a_acc>
1

>  <a_don>
1

>  <a_heavy>
9

>  <logP>
1.256

>  <logS>
-1.37386

>  <TPSA>
44.02

>  <Weight>
119.123

$$$$
Z45415554
  MOE2024           3D

 17 17  0  0  0  0  0  0  0  0999 V2000
    4.0260    0.1230   -0.3200 N   0  0  0  0  0  0  0  0  0  0  0  0
    4.6250   -0.6990   -0.3000 H   0  0  0  0  0  0  0  0  0  0  0  0
    4.6220    0.9160   -0.0990 H   0  0  0  0  0  0  0  0  0  0  0  0
    3.1100   -0.0490    1.0450 S   0  0  0  0  0  0  0  0  0  0  0  0
    3.4940   -1.3560    1.5170 O   0  0  0  0  0  0  0  0  0  0  0  0
    3.4510    1.1330    1.7980 O   0  0  0  0  0  0  0  0  0  0  0  0
    1.3950   -0.0100    0.4550 C   0  0  0  0  0  0  0  0  0  0  0  0
    0.6950   -1.1840    0.1970 C   0  0  0  0  0  0  0  0  0  0  0  0
    1.1770   -2.1330    0.3610 H   0  0  0  0  0  0  0  0  0  0  0  0
   -0.6090   -1.1560   -0.2670 C   0  0  0  0  0  0  0  0  0  0  0  0
   -1.1340   -2.0770   -0.4580 H   0  0  0  0  0  0  0  0  0  0  0  0
   -1.2390    0.0560   -0.4840 C   0  0  0  0  0  0  0  0  0  0  0  0
   -2.2540    0.0810   -0.8430 H   0  0  0  0  0  0  0  0  0  0  0  0
   -0.5600    1.2350   -0.2370 C   0  0  0  0  0  0  0  0  0  0  0  0
   -1.0470    2.1800   -0.4060 H   0  0  0  0  0  0  0  0  0  0  0  0
    0.7440    1.1980    0.2260 C   0  0  0  0  0  0  0  0  0  0  0  0
    1.2640    2.1220    0.4140 H   0  0  0  0  0  0  0  0  0  0  0  0
  1  2  1  0  0  0  0
  1  3  1  0  0  0  0
  1  4  1  0  0  0  0
  4  5  2  0  0  0  0
  4  6  2  0  0  0  0
  4  7  1  0  0  0  0
  7  8  1  0  0  0  0
  7 16  2  0  0  0  0
  8  9  1  0  0  0  0
  8 10  2  0  0  0  0
 10 11  1  0  0  0  0
 10 12  1  0  0  0  0
 12 13  1  0  0  0  0
 12 14  2  0  0  0  0
 14 15  1  0  0  0  0
 14 16  1  0  0  0  0
 16 17  1  0  0  0  0
M  END
>  <Catalog ID>
Z45415554

>  <a_acc>
2

>  <a_don>
1

>  <a_heavy>
10

>  <logP>
0.33399999

>  <logS>
-1.61149

>  <TPSA>
60.16

>  <Weight>
157.19299

$$$$
Z57127459
  MOE2024           3D

 17 17  0  0  0  0  0  0  0  0999 V2000
    3.6870   -1.3130    0.2870 C   0  0  0  0  0  0  0  0  0  0  0  0
    3.3490   -1.9420    1.0890 H   0  0  0  0  0  0  0  0  0  0  0  0
    4.7330   -1.1090    0.4310 H   0  0  0  0  0  0  0  0  0  0  0  0
    3.5660   -1.8200   -0.6520 H   0  0  0  0  0  0  0  0  0  0  0  0
    2.9060   -0.0120    0.2820 C   0  0  0  0  0  0  0  0  0  0  0  0
    3.5460    0.9950    0.4370 O   0  0  0  0  0  0  0  0  0  0  0  0
    1.4670   -0.0160    0.0970 C   0  0  0  0  0  0  0  0  0  0  0  0
    0.7240   -1.1920   -0.0870 C   0  0  0  0  0  0  0  0  0  0  0  0
    1.2150   -2.1480   -0.0970 H   0  0  0  0  0  0  0  0  0  0  0  0
   -0.6480   -1.1650   -0.2620 C   0  0  0  0  0  0  0  0  0  0  0  0
   -1.2120   -2.0700   -0.4030 H   0  0  0  0  0  0  0  0  0  0  0  0
   -1.2950    0.0550   -0.2530 C   0  0  0  0  0  0  0  0  0  0  0  0
   -3.1990    0.1030   -0.4940 Br  0  0  0  0  0  0  0  0  0  0  0  0
   -0.6110    1.2410   -0.0740 C   0  0  0  0  0  0  0  0  0  0  0  0
   -1.1420    2.1770   -0.0710 H   0  0  0  0  0  0  0  0  0  0  0  0
    0.7600    1.1930    0.0980 C   0  0  0  0  0  0  0  0  0  0  0  0
    1.3030    2.1140    0.2380 H   0  0  0  0  0  0  0  0  0  0  0  0
  1  2  1  0  0  0  0
  1  3  1  0  0  0  0
  1  4  1  0  0  0  0
  1  5  1  0  0  0  0
  5  6  2  0  0  0  0
  5  7  1  0  0  0  0
  7  8  1  0  0  0  0
  7 16  2  0  0  0  0
  8  9  1  0  0  0  0
  8 10  2  0  0  0  0
 10 11  1  0  0  0  0
 10 12  1  0  0  0  0
 12 13  1  0  0  0  0
 12 14  2  0  0  0  0
 14 15  1  0  0  0  0
 14 16  1  0  0  0  0
 16 17  1  0  0  0  0
M  END
>  <Catalog ID>
Z57127459

>  <a_acc>
1

>  <a_don>
0

>  <a_heavy>
10

>  <logP>
2.5569999

>  <logS>
-2.78754

>  <TPSA>
17.07

>  <Weight>
199.047

$$$$
Z104480244
  MOE2024           3D

 20 20  0  0  0  0  0  0  0  0999 V2000
    5.0300   -0.8750    0.0100 C   0  0  0  0  0  0  0  0  0  0  0  0
    5.6260   -1.7690    0.0060 H   0  0  0  0  0  0  0  0  0  0  0  0
    5.2670   -0.3100    0.8940 H   0  0  0  0  0  0  0  0  0  0  0  0
    5.2710   -0.2970   -0.8640 H   0  0  0  0  0  0  0  0  0  0  0  0
    3.5490   -1.2420    0.0040 C   0  0  0  0  0  0  0  0  0  0  0  0
    3.2940   -1.8090    0.8830 H   0  0  0  0  0  0  0  0  0  0  0  0
    3.2980   -1.7960   -0.8850 H   0  0  0  0  0  0  0  0  0  0  0  0
    2.8040   -0.0470    0.0110 O   0  0  0  0  0  0  0  0  0  0  0  0
    1.4390   -0.0710    0.0070 C   0  0  0  0  0  0  0  0  0  0  0  0
    0.6840   -1.2410    0.0020 C   0  0  0  0  0  0  0  0  0  0  0  0
    1.1480   -2.2080    0.0000 H   0  0  0  0  0  0  0  0  0  0  0  0
   -0.7010   -1.1740   -0.0020 C   0  0  0  0  0  0  0  0  0  0  0  0
   -1.2820   -2.0800   -0.0060 H   0  0  0  0  0  0  0  0  0  0  0  0
   -1.3440    0.0530    0.0010 C   0  0  0  0  0  0  0  0  0  0  0  0
   -2.4200    0.1010   -0.0020 H   0  0  0  0  0  0  0  0  0  0  0  0
   -0.6020    1.2220    0.0060 C   0  0  0  0  0  0  0  0  0  0  0  0
   -1.0850    2.1830    0.0080 H   0  0  0  0  0  0  0  0  0  0  0  0
    0.7790    1.1540    0.0090 C   0  0  0  0  0  0  0  0  0  0  0  0
    1.5010    2.2870    0.0150 O   0  0  0  0  0  0  0  0  0  0  0  0
    2.4520    2.0570    0.0170 H   0  0  0  0  0  0  0  0  0  0  0  0
  1  2  1  0  0  0  0
  1  3  1  0  0  0  0
  1  4  1  0  0  0  0
  1  5  1  0  0  0  0
  5  6  1  0  0  0  0
  5  7  1  0  0  0  0
  5  8  1  0  0  0  0
  8  9  1  0  0  0  0
  9 10  1  0  0  0  0
  9 18  2  0  0  0  0
 10 11  1  0  0  0  0
 10 12  2  0  0  0  0
 12 13  1  0  0  0  0
 12 14  1  0  0  0  0
 14 15  1  0  0  0  0
 14 16  2  0  0  0  0
 16 17  1  0  0  0  0
 16 18  1  0  0  0  0
 18 19  1  0  0  0  0
 19 20  1  0  0  0  0
M  END
>  <Catalog ID>
Z104480244

>  <a_acc>
2

>  <a_don>
1

>  <a_heavy>
10

>  <logP>
1.893

>  <logS>
-1.40052

>  <TPSA>
29.459999

>  <Weight>
138.166

$$$$
Z235348069
  MOE2024           3D

 17 18  0  0  0  0  0  0  0  0999 V2000
   -3.3660    1.1520    0.1500 N   0  0  0  0  0  0  0  0  0  0  0  0
   -3.5870    0.4850   -0.5940 H   0  0  0  0  0  0  0  0  0  0  0  0
   -4.0910    1.8760    0.1820 H   0  0  0  0  0  0  0  0  0  0  0  0
   -2.0730    1.6480    0.0990 C   0  0  0  0  0  0  0  0  0  0  0  0
   -1.8110    2.9990    0.0030 C   0  0  0  0  0  0  0  0  0  0  0  0
   -2.6200    3.7050   -0.0110 H   0  0  0  0  0  0  0  0  0  0  0  0
   -0.4950    3.4740   -0.0840 C   0  0  0  0  0  0  0  0  0  0  0  0
   -0.3260    4.5340   -0.1620 H   0  0  0  0  0  0  0  0  0  0  0  0
    0.5670    2.6000   -0.0710 C   0  0  0  0  0  0  0  0  0  0  0  0
    1.5820    2.9470   -0.1400 H   0  0  0  0  0  0  0  0  0  0  0  0
    0.3180    1.2240    0.0400 C   0  0  0  0  0  0  0  0  0  0  0  0
    1.0920    0.0520    0.1060 C   0  0  0  0  0  0  0  0  0  0  0  0
    2.1670    0.0510    0.0520 H   0  0  0  0  0  0  0  0  0  0  0  0
    0.3790   -1.0190    0.2410 N   0  0  0  0  0  0  0  0  0  0  0  0
   -0.9010   -0.5750    0.2680 N   0  0  0  0  0  0  0  0  0  0  0  0
   -1.7110   -1.1870    0.4160 H   0  0  0  0  0  0  0  0  0  0  0  0
   -0.9790    0.7760    0.1320 C   0  0  0  0  0  0  0  0  0  0  0  0
  1  2  1  0  0  0  0
  1  3  1  0  0  0  0
  1  4  1  0  0  0  0
  4  5  1  0  0  0  0
  4 17  2  0  0  0  0
  5  6  1  0  0  0  0
  5  7  2  0  0  0  0
  7  8  1  0  0  0  0
  7  9  1  0  0  0  0
  9 10  1  0  0  0  0
  9 11  2  0  0  0  0
 11 12  1  0  0  0  0
 11 17  1  0  0  0  0
 12 13  1  0  0  0  0
 12 14  2  0  0  0  0
 14 15  1  0  0  0  0
 15 16  1  0  0  0  0
 15 17  1  0  0  0  0
M  END
>  <Catalog ID>
Z235348069

>  <a_acc>
2

>  <a_don>
3

>  <a_heavy>
10

>  <logP>
1.261

>  <logS>
-1.3884799

>  <TPSA>
54.700001

>  <Weight>
133.15399

$$$$
Z362635046
  MOE2024           3D

 18 18  0  0  0  0  0  0  0  0999 V2000
    3.5530   -1.1570   -0.0170 C   0  0  0  0  0  0  0  0  0  0  0  0
    4.5900   -0.8750   -0.0390 H   0  0  0  0  0  0  0  0  0  0  0  0
    3.3240   -1.7720   -0.8700 H   0  0  0  0  0  0  0  0  0  0  0  0
    3.3330   -1.6700    0.9020 H   0  0  0  0  0  0  0  0  0  0  0  0
    2.7790    0.0200   -0.0810 O   0  0  0  0  0  0  0  0  0  0  0  0
    1.4130   -0.0340   -0.0300 C   0  0  0  0  0  0  0  0  0  0  0  0
    0.6930   -1.2260    0.0060 C   0  0  0  0  0  0  0  0  0  0  0  0
    1.1870   -2.1780   -0.0050 H   0  0  0  0  0  0  0  0  0  0  0  0
   -0.6920   -1.2000    0.0570 C   0  0  0  0  0  0  0  0  0  0  0  0
   -1.2410   -2.1230    0.0900 H   0  0  0  0  0  0  0  0  0  0  0  0
   -1.3910    0.0020    0.0710 C   0  0  0  0  0  0  0  0  0  0  0  0
   -2.7740    0.0080    0.1130 N   0  0  0  0  0  0  0  0  0  0  0  0
   -3.2270    0.8610   -0.2290 H   0  0  0  0  0  0  0  0  0  0  0  0
   -3.2350   -0.8310   -0.2500 H   0  0  0  0  0  0  0  0  0  0  0  0
   -0.6840    1.1950    0.0410 C   0  0  0  0  0  0  0  0  0  0  0  0
   -1.1960    2.1380    0.0610 H   0  0  0  0  0  0  0  0  0  0  0  0
    0.6950    1.1580   -0.0110 C   0  0  0  0  0  0  0  0  0  0  0  0
    1.3350    2.3020   -0.0410 F   0  0  0  0  0  0  0  0  0  0  0  0
  1  2  1  0  0  0  0
  1  3  1  0  0  0  0
  1  4  1  0  0  0  0
  1  5  1  0  0  0  0
  5  6  1  0  0  0  0
  6  7  1  0  0  0  0
  6 17  2  0  0  0  0
  7  8  1  0  0  0  0
  7  9  2  0  0  0  0
  9 10  1  0  0  0  0
  9 11  1  0  0  0  0
 11 12  1  0  0  0  0
 11 15  2  0  0  0  0
 12 13  1  0  0  0  0
 12 14  1  0  0  0  0
 15 16  1  0  0  0  0
 15 17  1  0  0  0  0
 17 18  1  0  0  0  0
M  END
>  <Catalog ID>
Z362635046

>  <a_acc>
1

>  <a_don>
1

>  <a_heavy>
10

>  <logP>
1.378

>  <logS>
-1.45112

>  <TPSA>
35.25

>  <Weight>
141.14499

$$$$
Z1104852895
  MOE2024           3D

 19 19  0  0  0  0  0  0  0  0999 V2000
    2.7940    0.1110   -0.0040 C   0  0  0  0  0  0  0  0  0  0  0  0
    3.2200   -0.8750   -0.0070 H   0  0  0  0  0  0  0  0  0  0  0  0
    3.1340    0.6340    0.8710 H   0  0  0  0  0  0  0  0  0  0  0  0
    3.1320    0.6390   -0.8760 H   0  0  0  0  0  0  0  0  0  0  0  0
    1.2810    0.0560   -0.0020 C   0  0  0  0  0  0  0  0  0  0  0  0
    0.6280   -1.1680   -0.0020 C   0  0  0  0  0  0  0  0  0  0  0  0
    1.1920   -2.0830   -0.0030 H   0  0  0  0  0  0  0  0  0  0  0  0
   -0.7490   -1.2090   -0.0010 C   0  0  0  0  0  0  0  0  0  0  0  0
   -1.2770   -2.1450   -0.0010 H   0  0  0  0  0  0  0  0  0  0  0  0
   -1.4070    0.0040    0.0000 C   0  0  0  0  0  0  0  0  0  0  0  0
   -2.7540    0.0180    0.0010 O   0  0  0  0  0  0  0  0  0  0  0  0
   -3.1500   -0.8730    0.0010 H   0  0  0  0  0  0  0  0  0  0  0  0
   -0.6700    1.1880    0.0000 C   0  0  0  0  0  0  0  0  0  0  0  0
   -1.4280    2.5190    0.0010 C   0  0  0  0  0  0  0  0  0  0  0  0
   -2.0380    2.6040    0.8820 H   0  0  0  0  0  0  0  0  0  0  0  0
   -2.0440    2.6020   -0.8770 H   0  0  0  0  0  0  0  0  0  0  0  0
   -0.5240    3.5710   -0.0030 O   0  0  0  0  0  0  0  0  0  0  0  0
    0.3620    3.1370   -0.0040 H   0  0  0  0  0  0  0  0  0  0  0  0
    0.6630    1.2250   -0.0020 N   0  0  0  0  0  0  0  0  0  0  0  0
  1  2  1  0  0  0  0
  1  3  1  0  0  0  0
  1  4  1  0  0  0  0
  1  5  1  0  0  0  0
  5  6  1  0  0  0  0
  5 19  2  0  0  0  0
  6  7  1  0  0  0  0
  6  8  2  0  0  0  0
  8  9  1  0  0  0  0
  8 10  1  0  0  0  0
 10 11  1  0  0  0  0
 10 13  2  0  0  0  0
 11 12  1  0  0  0  0
 13 14  1  0  0  0  0
 13 19  1  0  0  0  0
 14 15  1  0  0  0  0
 14 16  1  0  0  0  0
 14 17  1  0  0  0  0
 17 18  1  0  0  0  0
M  END
>  <Catalog ID>
Z1104852895

>  <a_acc>
3

>  <a_don>
2

>  <a_heavy>
10

>  <logP>
0.061999999

>  <logS>
-0.0021200001

>  <TPSA>
53.349998

>  <Weight>
139.15399

$$$$
Z1198147845
  MOE2024           3D

 16 17  0  0  0  0  0  0  0  0999 V2000
   -2.7680    3.9730   -0.0040 O   0  0  0  0  0  0  0  0  0  0  0  0
   -2.4570    4.8950   -0.0040 H   0  0  0  0  0  0  0  0  0  0  0  0
   -1.7640    3.0830   -0.0040 C   0  0  0  0  0  0  0  0  0  0  0  0
   -0.4370    3.5400   -0.0020 C   0  0  0  0  0  0  0  0  0  0  0  0
   -0.2390    4.5960   -0.0020 H   0  0  0  0  0  0  0  0  0  0  0  0
    0.6020    2.6400   -0.0010 C   0  0  0  0  0  0  0  0  0  0  0  0
    1.6270    2.9660    0.0000 H   0  0  0  0  0  0  0  0  0  0  0  0
    0.3220    1.2650   -0.0020 C   0  0  0  0  0  0  0  0  0  0  0  0
    1.0760    0.0790   -0.0020 C   0  0  0  0  0  0  0  0  0  0  0  0
    2.1530    0.0650   -0.0010 H   0  0  0  0  0  0  0  0  0  0  0  0
    0.3450   -0.9860   -0.0030 N   0  0  0  0  0  0  0  0  0  0  0  0
   -0.9300   -0.5300   -0.0040 N   0  0  0  0  0  0  0  0  0  0  0  0
   -1.7430   -1.1560   -0.0050 H   0  0  0  0  0  0  0  0  0  0  0  0
   -0.9870    0.8320   -0.0030 C   0  0  0  0  0  0  0  0  0  0  0  0
   -2.0520    1.7390   -0.0040 C   0  0  0  0  0  0  0  0  0  0  0  0
   -3.0710    1.3980   -0.0050 H   0  0  0  0  0  0  0  0  0  0  0  0
  1  2  1  0  0  0  0
  1  3  1  0  0  0  0
  3  4  1  0  0  0  0
  3 15  2  0  0  0  0
  4  5  1  0  0  0  0
  4  6  2  0  0  0  0
  6  7  1  0  0  0  0
  6  8  1  0  0  0  0
  8  9  1  0  0  0  0
  8 14  2  0  0  0  0
  9 10  1  0  0  0  0
  9 11  2  0  0  0  0
 11 12  1  0  0  0  0
 12 13  1  0  0  0  0
 12 14  1  0  0  0  0
 14 15  1  0  0  0  0
 15 16  1  0  0  0  0
M  END
>  <Catalog ID>
Z1198147845

>  <a_acc>
3

>  <a_don>
3

>  <a_heavy>
10

>  <logP>
1.664

>  <logS>
-1.30565

>  <TPSA>
48.91

>  <Weight>
134.138

$$$$
Z56791635
  MOE2024           3D

 19 20  0  0  0  0  0  0  0  0999 V2000
   -1.2700   -5.3510    0.0080 O   0  0  0  0  0  0  0  0  0  0  0  0
   -1.2660   -6.3280    0.0110 H   0  0  0  0  0  0  0  0  0  0  0  0
    0.0400   -4.8720   -0.0020 C   0  0  0  0  0  0  0  0  0  0  0  0
    0.5320   -5.2370   -0.8860 H   0  0  0  0  0  0  0  0  0  0  0  0
    0.5480   -5.2410    0.8720 H   0  0  0  0  0  0  0  0  0  0  0  0
    0.0460   -3.3520    0.0020 C   0  0  0  0  0  0  0  0  0  0  0  0
    1.1120   -2.6260    0.0120 N   0  0  0  0  0  0  0  0  0  0  0  0
    0.6470   -1.3440    0.0100 C   0  0  0  0  0  0  0  0  0  0  0  0
    1.3530   -0.1430    0.0190 C   0  0  0  0  0  0  0  0  0  0  0  0
    2.4260   -0.1770    0.0280 H   0  0  0  0  0  0  0  0  0  0  0  0
    0.6570    1.0480    0.0150 C   0  0  0  0  0  0  0  0  0  0  0  0
    1.1870    1.9840    0.0210 H   0  0  0  0  0  0  0  0  0  0  0  0
   -0.7440    1.0530    0.0020 C   0  0  0  0  0  0  0  0  0  0  0  0
   -1.2630    1.9950   -0.0010 H   0  0  0  0  0  0  0  0  0  0  0  0
   -1.4500   -0.1300   -0.0060 C   0  0  0  0  0  0  0  0  0  0  0  0
   -2.5260   -0.1390   -0.0150 H   0  0  0  0  0  0  0  0  0  0  0  0
   -0.7360   -1.3300   -0.0010 C   0  0  0  0  0  0  0  0  0  0  0  0
   -1.1040   -2.6340   -0.0070 N   0  0  0  0  0  0  0  0  0  0  0  0
   -2.0450   -3.0370   -0.0130 H   0  0  0  0  0  0  0  0  0  0  0  0
  1  2  1  0  0  0  0
  1  3  1  0  0  0  0
  3  4  1  0  0  0  0
  3  5  1  0  0  0  0
  3  6  1  0  0  0  0
  6  7  2  0  0  0  0
  6 18  1  0  0  0  0
  7  8  1  0  0  0  0
  8  9  1  0  0  0  0
  8 17  2  0  0  0  0
  9 10  1  0  0  0  0
  9 11  2  0  0  0  0
 11 12  1  0  0  0  0
 11 13  1  0  0  0  0
 13 14  1  0  0  0  0
 13 15  2  0  0  0  0
 15 16  1  0  0  0  0
 15 17  1  0  0  0  0
 17 18  1  0  0  0  0
 18 19  1  0  0  0  0
M  END
>  <Catalog ID>
Z56791635

>  <a_acc>
3

>  <a_don>
3

>  <a_heavy>
11

>  <logP>
0.80000001

>  <logS>
-1.40742

>  <TPSA>
48.91

>  <Weight>
148.16499

$$$$
Z45415567
  MOE2024           3D

 17 17  0  0  0  0  0  0  0  0999 V2000
    3.9890    0.0130   -0.6720 N   0  0  0  0  0  0  0  0  0  0  0  0
    4.5920   -0.8020   -0.5890 H   0  0  0  0  0  0  0  0  0  0  0  0
    4.5930    0.8240   -0.5650 H   0  0  0  0  0  0  0  0  0  0  0  0
    3.1330   -0.0080    0.7430 S   0  0  0  0  0  0  0  0  0  0  0  0
    3.5200   -1.2680    1.3270 O   0  0  0  0  0  0  0  0  0  0  0  0
    3.5130    1.2390    1.3590 O   0  0  0  0  0  0  0  0  0  0  0  0
    1.3940   -0.0050    0.2210 C   0  0  0  0  0  0  0  0  0  0  0  0
    0.7070   -1.2010    0.0180 C   0  0  0  0  0  0  0  0  0  0  0  0
    1.2140   -2.1370    0.1880 H   0  0  0  0  0  0  0  0  0  0  0  0
   -0.6150   -1.2090   -0.3960 C   0  0  0  0  0  0  0  0  0  0  0  0
   -1.1480   -2.1300   -0.5520 H   0  0  0  0  0  0  0  0  0  0  0  0
   -1.2470    0.0000   -0.6100 C   0  0  0  0  0  0  0  0  0  0  0  0
   -2.4920    0.0020   -1.0000 F   0  0  0  0  0  0  0  0  0  0  0  0
   -0.6020    1.2060   -0.4240 C   0  0  0  0  0  0  0  0  0  0  0  0
   -1.1250    2.1300   -0.6010 H   0  0  0  0  0  0  0  0  0  0  0  0
    0.7200    1.1930   -0.0090 C   0  0  0  0  0  0  0  0  0  0  0  0
    1.2360    2.1280    0.1400 H   0  0  0  0  0  0  0  0  0  0  0  0
  1  2  1  0  0  0  0
  1  3  1  0  0  0  0
  1  4  1  0  0  0  0
  4  5  2  0  0  0  0
  4  6  2  0  0  0  0
  4  7  1  0  0  0  0
  7  8  1  0  0  0  0
  7 16  2  0  0  0  0
  8  9  1  0  0  0  0
  8 10  2  0  0  0  0
 10 11  1  0  0  0  0
 10 12  1  0  0  0  0
 12 13  1  0  0  0  0
 12 14  2  0  0  0  0
 14 15  1  0  0  0  0
 14 16  1  0  0  0  0
 16 17  1  0  0  0  0
M  END
>  <Catalog ID>
Z45415567

>  <a_acc>
2

>  <a_don>
1

>  <a_heavy>
11

>  <logP>
0.48699999

>  <logS>
-1.9064699

>  <TPSA>
60.16

>  <Weight>
175.183

$$$$
Z104478474
  MOE2024           3D

 20 20  0  0  0  0  0  0  0  0999 V2000
    3.6310   -1.2760   -0.0080 C   0  0  0  0  0  0  0  0  0  0  0  0
    4.6940   -1.1170   -0.0100 H   0  0  0  0  0  0  0  0  0  0  0  0
    3.3670   -1.8380   -0.8860 H   0  0  0  0  0  0  0  0  0  0  0  0
    3.3710   -1.8430    0.8680 H   0  0  0  0  0  0  0  0  0  0  0  0
    2.9020    0.0730   -0.0030 C   0  0  0  0  0  0  0  0  0  0  0  0
    3.2090    0.6320   -0.8690 H   0  0  0  0  0  0  0  0  0  0  0  0
    3.2100    0.6270    0.8670 H   0  0  0  0  0  0  0  0  0  0  0  0
    1.3770   -0.0090   -0.0020 C   0  0  0  0  0  0  0  0  0  0  0  0
    0.6640   -1.2010   -0.0010 C   0  0  0  0  0  0  0  0  0  0  0  0
    1.1640   -2.1500   -0.0010 H   0  0  0  0  0  0  0  0  0  0  0  0
   -0.7190   -1.1950   -0.0010 C   0  0  0  0  0  0  0  0  0  0  0  0
   -1.2610   -2.1260    0.0000 H   0  0  0  0  0  0  0  0  0  0  0  0
   -1.4520   -0.0080   -0.0010 C   0  0  0  0  0  0  0  0  0  0  0  0
   -0.7190    1.1790   -0.0020 C   0  0  0  0  0  0  0  0  0  0  0  0
   -1.2590    2.1110   -0.0020 H   0  0  0  0  0  0  0  0  0  0  0  0
    0.6640    1.1800   -0.0020 C   0  0  0  0  0  0  0  0  0  0  0  0
    1.1830    2.1210   -0.0030 H   0  0  0  0  0  0  0  0  0  0  0  0
   -2.9110   -0.0070   -0.0010 C   0  0  0  0  0  0  0  0  0  0  0  0
   -3.5480   -1.0770   -0.0010 O   0  5  0  0  0  0  0  0  0  0  0  0
   -3.5470    1.0640   -0.0020 O   0  0  0  0  0  0  0  0  0  0  0  0
  1  2  1  0  0  0  0
  1  3  1  0  0  0  0
  1  4  1  0  0  0  0
  1  5  1  0  0  0  0
  5  6  1  0  0  0  0
  5  7  1  0  0  0  0
  5  8  1  0  0  0  0
  8  9  1  0  0  0  0
  8 16  2  0  0  0  0
  9 10  1  0  0  0  0
  9 11  2  0  0  0  0
 11 12  1  0  0  0  0
 11 13  1  0  0  0  0
 13 14  2  0  0  0  0
 13 18  1  0  0  0  0
 14 15  1  0  0  0  0
 14 16  1  0  0  0  0
 16 17  1  0  0  0  0
 18 19  1  0  0  0  0
 18 20  2  0  0  0  0
M  CHG  1  19  -1
M  END
>  <Catalog ID>
Z104478474

>  <a_acc>
0

>  <a_don>
0

>  <a_heavy>
11

>  <logP>
2.477

>  <logS>
-2.6038699

>  <TPSA>
40.130001

>  <Weight>
149.16899

$$$$
Z203881854
  MOE2024           3D

 17 17  0  0  0  0  0  0  0  0999 V2000
    2.8980   -0.1280   -0.0050 C   0  0  0  0  0  0  0  0  0  0  0  0
    3.2150   -1.1530   -0.0050 H   0  0  0  0  0  0  0  0  0  0  0  0
    3.3030    0.3550    0.8670 H   0  0  0  0  0  0  0  0  0  0  0  0
    3.3000    0.3550   -0.8770 H   0  0  0  0  0  0  0  0  0  0  0  0
    1.3790    0.0000   -0.0020 C   0  0  0  0  0  0  0  0  0  0  0  0
    0.6480   -1.1820   -0.0010 C   0  0  0  0  0  0  0  0  0  0  0  0
    1.1550   -2.1300   -0.0010 H   0  0  0  0  0  0  0  0  0  0  0  0
   -0.7330   -1.1650    0.0010 C   0  0  0  0  0  0  0  0  0  0  0  0
   -1.3080   -2.0710    0.0020 H   0  0  0  0  0  0  0  0  0  0  0  0
   -1.3620    0.0600    0.0020 C   0  0  0  0  0  0  0  0  0  0  0  0
   -2.6690    0.0930    0.0040 F   0  0  0  0  0  0  0  0  0  0  0  0
   -0.6600    1.2460    0.0010 C   0  0  0  0  0  0  0  0  0  0  0  0
   -1.2030    2.1760    0.0010 H   0  0  0  0  0  0  0  0  0  0  0  0
    0.7410    1.2600   -0.0020 C   0  0  0  0  0  0  0  0  0  0  0  0
    1.4140    2.5660   -0.0030 C   0  0  0  0  0  0  0  0  0  0  0  0
    2.6520    2.6880   -0.0020 O   0  5  0  0  0  0  0  0  0  0  0  0
    0.7410    3.6140   -0.0050 O   0  0  0  0  0  0  0  0  0  0  0  0
  1  2  1  0  0  0  0
  1  3  1  0  0  0  0
  1  4  1  0  0  0  0
  1  5  1  0  0  0  0
  5  6  1  0  0  0  0
  5 14  2  0  0  0  0
  6  7  1  0  0  0  0
  6  8  2  0  0  0  0
  8  9  1  0  0  0  0
  8 10  1  0  0  0  0
 10 11  1  0  0  0  0
 10 12  2  0  0  0  0
 12 13  1  0  0  0  0
 12 14  1  0  0  0  0
 14 15  1  0  0  0  0
 15 16  1  0  0  0  0
 15 17  2  0  0  0  0
M  CHG  1  16  -1
M  END
>  <Catalog ID>
Z203881854

>  <a_acc>
0

>  <a_don>
0

>  <a_heavy>
11

>  <logP>
2.1900001

>  <logS>
-2.38363

>  <TPSA>
40.130001

>  <Weight>
153.13199

$$$$
Z235000792
  MOE2024           3D

 15 16  0  0  0  0  0  0  0  0999 V2000
   -2.7160    4.5740    0.0100 O   0  5  0  0  0  0  0  0  0  0  0  0
   -1.4790    4.4440    0.0060 C   0  0  0  0  0  0  0  0  0  0  0  0
   -0.7460    5.4450    0.0020 O   0  0  0  0  0  0  0  0  0  0  0  0
   -0.9280    3.1160    0.0040 C   0  0  0  0  0  0  0  0  0  0  0  0
    0.3700    2.6550   -0.0010 C   0  0  0  0  0  0  0  0  0  0  0  0
    1.2560    3.2640   -0.0040 H   0  0  0  0  0  0  0  0  0  0  0  0
    0.3370    1.2520    0.0010 C   0  0  0  0  0  0  0  0  0  0  0  0
    1.1780    0.0890   -0.0020 C   0  0  0  0  0  0  0  0  0  0  0  0
    2.2460    0.2000   -0.0060 H   0  0  0  0  0  0  0  0  0  0  0  0
    0.4930   -1.0740    0.0020 C   0  0  0  0  0  0  0  0  0  0  0  0
    0.8190   -2.0980    0.0020 H   0  0  0  0  0  0  0  0  0  0  0  0
   -1.2630   -0.7950    0.0090 S   0  0  0  0  0  0  0  0  0  0  0  0
   -0.9820    0.9420    0.0060 C   0  0  0  0  0  0  0  0  0  0  0  0
   -1.7710    2.0350    0.0080 N   0  0  0  0  0  0  0  0  0  0  0  0
   -2.7950    2.1240    0.0120 H   0  0  0  0  0  0  0  0  0  0  0  0
  1  2  1  0  0  0  0
  2  3  2  0  0  0  0
  2  4  1  0  0  0  0
  4  5  2  0  0  0  0
  4 14  1  0  0  0  0
  5  6  1  0  0  0  0
  5  7  1  0  0  0  0
  7  8  1  0  0  0  0
  7 13  2  0  0  0  0
  8  9  1  0  0  0  0
  8 10  2  0  0  0  0
 10 11  1  0  0  0  0
 10 12  1  0  0  0  0
 12 13  1  0  0  0  0
 13 14  1  0  0  0  0
 14 15  1  0  0  0  0
M  CHG  1   1  -1
M  END
>  <Catalog ID>
Z235000792

>  <a_acc>
0

>  <a_don>
1

>  <a_heavy>
11

>  <logP>
1.934

>  <logS>
-2.4758

>  <TPSA>
55.919998

>  <Weight>
166.17999

$$$$
Z802851752
  MOE2024           3D

 19 19  0  0  0  0  0  0  0  0999 V2000
    2.8630   -0.0210    0.1900 C   0  0  0  0  0  0  0  0  0  0  0  0
    3.1870   -1.0020    0.4820 H   0  0  0  0  0  0  0  0  0  0  0  0
    3.1950    0.6810    0.9330 H   0  0  0  0  0  0  0  0  0  0  0  0
    3.3280    0.2320   -0.7470 H   0  0  0  0  0  0  0  0  0  0  0  0
    1.3480    0.0530    0.0430 C   0  0  0  0  0  0  0  0  0  0  0  0
    0.6500   -1.1430    0.0670 C   0  0  0  0  0  0  0  0  0  0  0  0
    1.1760   -2.0740    0.1710 H   0  0  0  0  0  0  0  0  0  0  0  0
   -0.7270   -1.1600   -0.0410 C   0  0  0  0  0  0  0  0  0  0  0  0
   -1.2610   -2.0930   -0.0250 H   0  0  0  0  0  0  0  0  0  0  0  0
   -1.4060    0.0300   -0.1700 C   0  0  0  0  0  0  0  0  0  0  0  0
   -2.4750    0.0360   -0.2580 H   0  0  0  0  0  0  0  0  0  0  0  0
   -0.7250    1.2390   -0.1970 C   0  0  0  0  0  0  0  0  0  0  0  0
   -1.4730    2.3920   -0.3070 N   0  0  0  0  0  0  0  0  0  0  0  0
   -0.8350    3.2150   -0.1940 H   0  0  0  0  0  0  0  0  0  0  0  0
   -2.2270    2.4810    0.3700 H   0  0  0  0  0  0  0  0  0  0  0  0
    0.6800    1.2850   -0.1020 C   0  0  0  0  0  0  0  0  0  0  0  0
    1.3770    2.5730   -0.1500 C   0  0  0  0  0  0  0  0  0  0  0  0
    2.5210    2.6910   -0.6320 O   0  5  0  0  0  0  0  0  0  0  0  0
    0.8460    3.6170    0.2890 O   0  0  0  0  0  0  0  0  0  0  0  0
  1  2  1  0  0  0  0
  1  3  1  0  0  0  0
  1  4  1  0  0  0  0
  1  5  1  0  0  0  0
  5  6  1  0  0  0  0
  5 16  2  0  0  0  0
  6  7  1  0  0  0  0
  6  8  2  0  0  0  0
  8  9  1  0  0  0  0
  8 10  1  0  0  0  0
 10 11  1  0  0  0  0
 10 12  2  0  0  0  0
 12 13  1  0  0  0  0
 12 16  1  0  0  0  0
 13 14  1  0  0  0  0
 13 15  1  0  0  0  0
 16 17  1  0  0  0  0
 17 18  1  0  0  0  0
 17 19  2  0  0  0  0
M  CHG  1  18  -1
M  END
>  <Catalog ID>
Z802851752

>  <a_acc>
0

>  <a_don>
1

>  <a_heavy>
11

>  <logP>
1.326

>  <logS>
-1.80953

>  <TPSA>
66.150002

>  <Weight>
150.157

$$$$
Z56969320
  MOE2024           3D

 20 21  0  0  0  0  0  0  0  0999 V2000
    2.6390    0.0820    0.0040 O   0  0  0  0  0  0  0  0  0  0  0  0
    3.0510   -0.8000    0.0000 H   0  0  0  0  0  0  0  0  0  0  0  0
    1.2980    0.0390    0.0040 C   0  0  0  0  0  0  0  0  0  0  0  0
    0.6350   -1.1760   -0.0010 C   0  0  0  0  0  0  0  0  0  0  0  0
    1.1880   -2.0980   -0.0040 H   0  0  0  0  0  0  0  0  0  0  0  0
   -0.7480   -1.2010    0.0000 C   0  0  0  0  0  0  0  0  0  0  0  0
   -1.2380   -2.1570   -0.0040 H   0  0  0  0  0  0  0  0  0  0  0  0
   -1.4940   -0.0200    0.0050 C   0  0  0  0  0  0  0  0  0  0  0  0
   -0.7990    1.1910    0.0100 C   0  0  0  0  0  0  0  0  0  0  0  0
   -1.3230    2.1290    0.0140 H   0  0  0  0  0  0  0  0  0  0  0  0
    0.5840    1.2210    0.0090 C   0  0  0  0  0  0  0  0  0  0  0  0
    1.1150    2.1560    0.0130 H   0  0  0  0  0  0  0  0  0  0  0  0
   -2.9250   -0.0500    0.0050 N   0  0  0  0  0  0  0  0  0  0  0  0
   -3.7500   -1.1280    0.0100 C   0  0  0  0  0  0  0  0  0  0  0  0
   -3.4030   -2.1420    0.0140 H   0  0  0  0  0  0  0  0  0  0  0  0
   -5.0210   -0.6760    0.0080 C   0  0  0  0  0  0  0  0  0  0  0  0
   -5.9310   -1.2530    0.0110 H   0  0  0  0  0  0  0  0  0  0  0  0
   -5.0520    0.6670    0.0020 N   0  0  0  0  0  0  0  0  0  0  0  0
   -3.8010    0.9950    0.0000 C   0  0  0  0  0  0  0  0  0  0  0  0
   -3.4630    2.0130   -0.0040 H   0  0  0  0  0  0  0  0  0  0  0  0
  1  2  1  0  0  0  0
  1  3  1  0  0  0  0
  3  4  1  0  0  0  0
  3 11  2  0  0  0  0
  4  5  1  0  0  0  0
  4  6  2  0  0  0  0
  6  7  1  0  0  0  0
  6  8  1  0  0  0  0
  8  9  2  0  0  0  0
  8 13  1  0  0  0  0
  9 10  1  0  0  0  0
  9 11  1  0  0  0  0
 11 12  1  0  0  0  0
 13 14  1  0  0  0  0
 13 19  1  0  0  0  0
 14 15  1  0  0  0  0
 14 16  2  0  0  0  0
 16 17  1  0  0  0  0
 16 18  1  0  0  0  0
 18 19  2  0  0  0  0
 19 20  1  0  0  0  0
M  END
>  <Catalog ID>
Z56969320

>  <a_acc>
2

>  <a_don>
1

>  <a_heavy>
12

>  <logP>
1.378

>  <logS>
-1.3450201

>  <TPSA>
38.049999

>  <Weight>
160.17599

$$$$
Z1455658966
  MOE2024           3D

 29 30  0  0  0  0  0  0  0  0999 V2000
    2.4570    0.5470   -0.5540 N   0  3  0  0  0  0  0  0  0  0  0  0
    3.0970   -0.2520   -0.6080 H   0  0  0  0  0  0  0  0  0  0  0  0
    2.9930    1.3730   -0.2680 H   0  0  0  0  0  0  0  0  0  0  0  0
    2.0790    0.7160   -1.4920 H   0  0  0  0  0  0  0  0  0  0  0  0
    1.3590    0.2750    0.3870 C   0  0  0  0  0  0  0  0  0  0  0  0
    1.7600    0.0890    1.3720 H   0  0  0  0  0  0  0  0  0  0  0  0
    0.6130   -0.9770   -0.0790 C   0  0  0  0  0  0  0  0  0  0  0  0
    1.2500   -1.8400   -0.0110 H   0  0  0  0  0  0  0  0  0  0  0  0
    0.2840   -0.8700   -1.0990 H   0  0  0  0  0  0  0  0  0  0  0  0
   -0.6230   -1.2210    0.7860 C   0  0  0  0  0  0  0  0  0  0  0  0
   -0.3430   -1.4430    1.8030 H   0  0  0  0  0  0  0  0  0  0  0  0
   -1.1730   -2.0670    0.4060 H   0  0  0  0  0  0  0  0  0  0  0  0
   -1.4570    0.0090    0.7670 N   0  0  0  0  0  0  0  0  0  0  0  0
   -0.7900    1.2170    1.3110 C   0  0  0  0  0  0  0  0  0  0  0  0
   -0.5090    1.0330    2.3350 H   0  0  0  0  0  0  0  0  0  0  0  0
   -1.4480    2.0690    1.3010 H   0  0  0  0  0  0  0  0  0  0  0  0
    0.4470    1.5050    0.4560 C   0  0  0  0  0  0  0  0  0  0  0  0
    0.1110    1.7840   -0.5280 H   0  0  0  0  0  0  0  0  0  0  0  0
    0.9740    2.3360    0.8890 H   0  0  0  0  0  0  0  0  0  0  0  0
   -2.7410   -0.0200    0.2690 C   0  0  0  0  0  0  0  0  0  0  0  0
   -3.2060   -1.0240   -0.2130 O   0  0  0  0  0  0  0  0  0  0  0  0
   -3.6180    1.2300    0.3060 C   0  0  0  0  0  0  0  0  0  0  0  0
   -3.9510    1.4440    1.3050 H   0  0  0  0  0  0  0  0  0  0  0  0
   -4.6000    1.5230   -0.7930 C   0  0  0  0  0  0  0  0  0  0  0  0
   -5.5620    1.9230   -0.5260 H   0  0  0  0  0  0  0  0  0  0  0  0
   -4.6560    0.8370   -1.6220 H   0  0  0  0  0  0  0  0  0  0  0  0
   -3.3840    2.3790   -0.6350 C   0  0  0  0  0  0  0  0  0  0  0  0
   -2.6200    2.3010   -1.3890 H   0  0  0  0  0  0  0  0  0  0  0  0
   -3.5130    3.3850   -0.2760 H   0  0  0  0  0  0  0  0  0  0  0  0
  1  2  1  0  0  0  0
  1  3  1  0  0  0  0
  1  4  1  0  0  0  0
  1  5  1  0  0  0  0
  5  6  1  0  0  0  0
  5  7  1  0  0  0  0
  5 17  1  0  0  0  0
  7  8  1  0  0  0  0
  7  9  1  0  0  0  0
  7 10  1  0  0  0  0
 10 11  1  0  0  0  0
 10 12  1  0  0  0  0
 10 13  1  0  0  0  0
 13 14  1  0  0  0  0
 13 20  1  0  0  0  0
 14 15  1  0  0  0  0
 14 16  1  0  0  0  0
 14 17  1  0  0  0  0
 17 18  1  0  0  0  0
 17 19  1  0  0  0  0
 20 21  2  0  0  0  0
 20 22  1  0  0  0  0
 22 23  1  0  0  0  0
 22 24  1  0  0  0  0
 22 27  1  0  0  0  0
 24 25  1  0  0  0  0
 24 26  1  0  0  0  0
 24 27  1  0  0  0  0
 27 28  1  0  0  0  0
 27 29  1  0  0  0  0
M  CHG  1   1   1
M  END
>  <Catalog ID>
Z1455658966

>  <a_acc>
1

>  <a_don>
0

>  <a_heavy>
12

>  <logP>
-0.17200001

>  <logS>
-0.18533

>  <TPSA>
47.950001

>  <Weight>
169.248

$$$$
Z607808530
  MOE2024           3D

 21 22  0  0  0  0  0  0  0  0999 V2000
    1.0760   -5.5380    0.3660 O   0  5  0  0  0  0  0  0  0  0  0  0
   -0.0080   -4.9730    0.1820 C   0  0  0  0  0  0  0  0  0  0  0  0
   -1.0880   -5.5340    0.4000 O   0  0  0  0  0  0  0  0  0  0  0  0
   -0.0140   -3.5560   -0.3630 C   0  0  0  0  0  0  0  0  0  0  0  0
   -0.0310   -3.6340   -1.4320 H   0  0  0  0  0  0  0  0  0  0  0  0
    1.2200   -2.7200    0.0280 C   0  0  0  0  0  0  0  0  0  0  0  0
    2.0200   -2.8540   -0.6780 H   0  0  0  0  0  0  0  0  0  0  0  0
    1.5590   -2.9870    1.0140 H   0  0  0  0  0  0  0  0  0  0  0  0
    0.6850   -1.3070    0.0400 C   0  0  0  0  0  0  0  0  0  0  0  0
    1.3950   -0.1210    0.0330 C   0  0  0  0  0  0  0  0  0  0  0  0
    2.4690   -0.1350    0.0170 H   0  0  0  0  0  0  0  0  0  0  0  0
    0.6990    1.0790    0.0470 C   0  0  0  0  0  0  0  0  0  0  0  0
    1.2380    2.0090    0.0420 H   0  0  0  0  0  0  0  0  0  0  0  0
   -0.6900    1.0820    0.0690 C   0  0  0  0  0  0  0  0  0  0  0  0
   -1.2230    2.0150    0.0800 H   0  0  0  0  0  0  0  0  0  0  0  0
   -1.3920   -0.1130    0.0770 C   0  0  0  0  0  0  0  0  0  0  0  0
   -2.4670   -0.1220    0.0950 H   0  0  0  0  0  0  0  0  0  0  0  0
   -0.6890   -1.3030    0.0620 C   0  0  0  0  0  0  0  0  0  0  0  0
   -1.2320   -2.7140    0.0660 C   0  0  0  0  0  0  0  0  0  0  0  0
   -1.5400   -2.9790    1.0630 H   0  0  0  0  0  0  0  0  0  0  0  0
   -2.0530   -2.8440   -0.6150 H   0  0  0  0  0  0  0  0  0  0  0  0
  1  2  1  0  0  0  0
  2  3  2  0  0  0  0
  2  4  1  0  0  0  0
  4  5  1  0  0  0  0
  4  6  1  0  0  0  0
  4 19  1  0  0  0  0
  6  7  1  0  0  0  0
  6  8  1  0  0  0  0
  6  9  1  0  0  0  0
  9 10  1  0  0  0  0
  9 18  2  0  0  0  0
 10 11  1  0  0  0  0
 10 12  2  0  0  0  0
 12 13  1  0  0  0  0
 12 14  1  0  0  0  0
 14 15  1  0  0  0  0
 14 16  2  0  0  0  0
 16 17  1  0  0  0  0
 16 18  1  0  0  0  0
 18 19  1  0  0  0  0
 19 20  1  0  0  0  0
 19 21  1  0  0  0  0
M  CHG  1   1  -1
M  END
>  <Catalog ID>
Z607808530

>  <a_acc>
0

>  <a_don>
0

>  <a_heavy>
12

>  <logP>
1.643

>  <logS>
-1.61655

>  <TPSA>
40.130001

>  <Weight>
161.17999

$$$$
Z1118536235
  MOE2024           3D

 18 19  0  0  0  0  0  0  0  0999 V2000
   -4.0510    3.7630    0.0070 O   0  5  0  0  0  0  0  0  0  0  0  0
   -2.8560    4.1130    0.0030 C   0  0  0  0  0  0  0  0  0  0  0  0
   -2.5950    5.3310    0.0010 O   0  0  0  0  0  0  0  0  0  0  0  0
   -1.7880    3.1210    0.0010 C   0  0  0  0  0  0  0  0  0  0  0  0
   -0.4310    3.5150   -0.0030 C   0  0  0  0  0  0  0  0  0  0  0  0
   -0.2210    4.5720   -0.0050 H   0  0  0  0  0  0  0  0  0  0  0  0
    0.5990    2.6050   -0.0050 C   0  0  0  0  0  0  0  0  0  0  0  0
    1.6220    2.9330   -0.0080 H   0  0  0  0  0  0  0  0  0  0  0  0
    0.2960    1.2420   -0.0020 C   0  0  0  0  0  0  0  0  0  0  0  0
    1.1060    0.1380   -0.0040 N   0  0  0  0  0  0  0  0  0  0  0  0
    2.1290    0.1610   -0.0070 H   0  0  0  0  0  0  0  0  0  0  0  0
    0.3110   -0.9750    0.0000 C   0  0  0  0  0  0  0  0  0  0  0  0
    0.7200   -1.9690    0.0000 H   0  0  0  0  0  0  0  0  0  0  0  0
   -0.9900   -0.5950    0.0030 C   0  0  0  0  0  0  0  0  0  0  0  0
   -1.8710   -1.2120    0.0070 H   0  0  0  0  0  0  0  0  0  0  0  0
   -1.0270    0.8170    0.0020 C   0  0  0  0  0  0  0  0  0  0  0  0
   -2.0580    1.7590    0.0040 C   0  0  0  0  0  0  0  0  0  0  0  0
   -3.0800    1.4220    0.0070 H   0  0  0  0  0  0  0  0  0  0  0  0
  1  2  1  0  0  0  0
  2  3  2  0  0  0  0
  2  4  1  0  0  0  0
  4  5  1  0  0  0  0
  4 17  2  0  0  0  0
  5  6  1  0  0  0  0
  5  7  2  0  0  0  0
  7  8  1  0  0  0  0
  7  9  1  0  0  0  0
  9 10  1  0  0  0  0
  9 16  2  0  0  0  0
 10 11  1  0  0  0  0
 10 12  1  0  0  0  0
 12 13  1  0  0  0  0
 12 14  2  0  0  0  0
 14 15  1  0  0  0  0
 14 16  1  0  0  0  0
 16 17  1  0  0  0  0
 17 18  1  0  0  0  0
M  CHG  1   1  -1
M  END
>  <Catalog ID>
Z1118536235

>  <a_acc>
0

>  <a_don>
1

>  <a_heavy>
12

>  <logP>
2.1099999

>  <logS>
-1.9046299

>  <TPSA>
55.919998

>  <Weight>
160.15199

$$$$
Z1269191577
  MOE2024           3D

 19 20  0  0  0  0  0  0  0  0999 V2000
    3.1640    0.0220   -0.0070 Br  0  0  0  0  0  0  0  0  0  0  0  0
    1.2410    0.0160   -0.0050 C   0  0  0  0  0  0  0  0  0  0  0  0
    0.5750   -1.1940   -0.0100 C   0  0  0  0  0  0  0  0  0  0  0  0
    1.1290   -2.1160   -0.0140 H   0  0  0  0  0  0  0  0  0  0  0  0
   -0.8080   -1.1870   -0.0090 C   0  0  0  0  0  0  0  0  0  0  0  0
   -1.3300   -2.1260   -0.0130 H   0  0  0  0  0  0  0  0  0  0  0  0
   -1.5350    0.0070   -0.0030 C   0  0  0  0  0  0  0  0  0  0  0  0
   -0.8160    1.2070    0.0010 C   0  0  0  0  0  0  0  0  0  0  0  0
   -1.3340    2.1470    0.0060 H   0  0  0  0  0  0  0  0  0  0  0  0
    0.5680    1.2200    0.0000 C   0  0  0  0  0  0  0  0  0  0  0  0
    1.1180    2.1440    0.0040 H   0  0  0  0  0  0  0  0  0  0  0  0
   -2.9820   -0.0170   -0.0020 C   0  0  0  0  0  0  0  0  0  0  0  0
   -3.8570   -1.0630    0.0040 C   0  0  0  0  0  0  0  0  0  0  0  0
   -3.6160   -2.1120    0.0110 H   0  0  0  0  0  0  0  0  0  0  0  0
   -5.1370   -0.6600    0.0020 N   0  0  0  0  0  0  0  0  0  0  0  0
   -5.0450    0.6290   -0.0060 C   0  0  0  0  0  0  0  0  0  0  0  0
   -5.8920    1.2930   -0.0100 H   0  0  0  0  0  0  0  0  0  0  0  0
   -3.7760    1.0780   -0.0090 N   0  0  0  0  0  0  0  0  0  0  0  0
   -3.4740    2.0540   -0.0160 H   0  0  0  0  0  0  0  0  0  0  0  0
  1  2  1  0  0  0  0
  2  3  1  0  0  0  0
  2 10  2  0  0  0  0
  3  4  1  0  0  0  0
  3  5  2  0  0  0  0
  5  6  1  0  0  0  0
  5  7  1  0  0  0  0
  7  8  2  0  0  0  0
  7 12  1  0  0  0  0
  8  9  1  0  0  0  0
  8 10  1  0  0  0  0
 10 11  1  0  0  0  0
 12 13  2  0  0  0  0
 12 18  1  0  0  0  0
 13 14  1  0  0  0  0
 13 15  1  0  0  0  0
 15 16  2  0  0  0  0
 16 17  1  0  0  0  0
 16 18  1  0  0  0  0
 18 19  1  0  0  0  0
M  END
>  <Catalog ID>
Z1269191577

>  <a_acc>
2

>  <a_don>
2

>  <a_heavy>
12

>  <logP>
2.3599999

>  <logS>
-3.4746699

>  <TPSA>
28.68

>  <Weight>
223.073

$$$$
Z45415607
  MOE2024           3D

 26 26  0  0  0  0  0  0  0  0999 V2000
    5.1420   -1.0330   -0.1290 C   0  0  0  0  0  0  0  0  0  0  0  0
    5.6440   -1.6600   -0.8460 H   0  0  0  0  0  0  0  0  0  0  0  0
    5.3240   -1.4290    0.8550 H   0  0  0  0  0  0  0  0  0  0  0  0
    5.5630   -0.0440   -0.1880 H   0  0  0  0  0  0  0  0  0  0  0  0
    3.6400   -0.9980   -0.4270 C   0  0  0  0  0  0  0  0  0  0  0  0
    3.2440   -1.9990   -0.3830 H   0  0  0  0  0  0  0  0  0  0  0  0
    3.4820   -0.6240   -1.4240 H   0  0  0  0  0  0  0  0  0  0  0  0
    2.8850   -0.1120    0.5720 C   0  0  0  0  0  0  0  0  0  0  0  0
    3.2720    0.8910    0.5320 H   0  0  0  0  0  0  0  0  0  0  0  0
    3.0360   -0.4800    1.5720 H   0  0  0  0  0  0  0  0  0  0  0  0
    1.3980   -0.0990    0.2540 C   0  0  0  0  0  0  0  0  0  0  0  0
    0.5590   -1.0620    0.7880 C   0  0  0  0  0  0  0  0  0  0  0  0
    0.9560   -1.8260    1.4340 H   0  0  0  0  0  0  0  0  0  0  0  0
   -0.7940   -1.0500    0.4930 C   0  0  0  0  0  0  0  0  0  0  0  0
   -1.4340   -1.8070    0.9140 H   0  0  0  0  0  0  0  0  0  0  0  0
   -1.3430   -0.0810   -0.3380 C   0  0  0  0  0  0  0  0  0  0  0  0
   -0.4880    0.8790   -0.8660 C   0  0  0  0  0  0  0  0  0  0  0  0
   -0.8840    1.6430   -1.5140 H   0  0  0  0  0  0  0  0  0  0  0  0
    0.8660    0.8730   -0.5750 C   0  0  0  0  0  0  0  0  0  0  0  0
    1.5040    1.6290   -1.0000 H   0  0  0  0  0  0  0  0  0  0  0  0
   -3.1150   -0.0740   -0.7240 S   0  0  0  0  0  0  0  0  0  0  0  0
   -3.8670   -0.0190    0.7480 N   0  0  0  0  0  0  0  0  0  0  0  0
   -4.6640   -0.6380    0.6230 H   0  0  0  0  0  0  0  0  0  0  0  0
   -4.2460    0.9240    0.7810 H   0  0  0  0  0  0  0  0  0  0  0  0
   -3.5330    1.1670   -1.3280 O   0  0  0  0  0  0  0  0  0  0  0  0
   -3.5580   -1.3350   -1.2650 O   0  0  0  0  0  0  0  0  0  0  0  0
  1  2  1  0  0  0  0
  1  3  1  0  0  0  0
  1  4  1  0  0  0  0
  1  5  1  0  0  0  0
  5  6  1  0  0  0  0
  5  7  1  0  0  0  0
  5  8  1  0  0  0  0
  8  9  1  0  0  0  0
  8 10  1  0  0  0  0
  8 11  1  0  0  0  0
 11 12  1  0  0  0  0
 11 19  2  0  0  0  0
 12 13  1  0  0  0  0
 12 14  2  0  0  0  0
 14 15  1  0  0  0  0
 14 16  1  0  0  0  0
 16 17  2  0  0  0  0
 16 21  1  0  0  0  0
 17 18  1  0  0  0  0
 17 19  1  0  0  0  0
 19 20  1  0  0  0  0
 21 22  1  0  0  0  0
 21 25  2  0  0  0  0
 21 26  2  0  0  0  0
 22 23  1  0  0  0  0
 22 24  1  0  0  0  0
M  END
>  <Catalog ID>
Z45415607

>  <a_acc>
2

>  <a_don>
1

>  <a_heavy>
13

>  <logP>
1.549

>  <logS>
-3.11585

>  <TPSA>
60.16

>  <Weight>
199.274

$$$$
Z1079133092
  MOE2024           3D

 21 22  0  0  0  0  0  0  0  0999 V2000
   -4.1200   -4.9650    0.0040 C   0  0  0  0  0  0  0  0  0  0  0  0
   -4.0350   -6.0370    0.0050 H   0  0  0  0  0  0  0  0  0  0  0  0
   -4.6390   -4.6350   -0.8790 H   0  0  0  0  0  0  0  0  0  0  0  0
   -4.6390   -4.6330    0.8860 H   0  0  0  0  0  0  0  0  0  0  0  0
   -2.8180   -4.4120    0.0030 O   0  0  0  0  0  0  0  0  0  0  0  0
   -2.6140   -3.0880    0.0010 C   0  0  0  0  0  0  0  0  0  0  0  0
   -3.5790   -2.3480   -0.0010 O   0  0  0  0  0  0  0  0  0  0  0  0
   -1.2470   -2.6330    0.0000 C   0  0  0  0  0  0  0  0  0  0  0  0
   -0.0940   -3.3770    0.0030 C   0  0  0  0  0  0  0  0  0  0  0  0
   -0.0090   -4.4500    0.0050 H   0  0  0  0  0  0  0  0  0  0  0  0
    0.9950   -2.5660    0.0020 N   0  0  0  0  0  0  0  0  0  0  0  0
    1.9860   -2.8240    0.0030 H   0  0  0  0  0  0  0  0  0  0  0  0
    0.5680   -1.2740   -0.0020 C   0  0  0  0  0  0  0  0  0  0  0  0
    1.3620   -0.1960   -0.0040 N   0  0  0  0  0  0  0  0  0  0  0  0
    0.7150    0.9460   -0.0070 C   0  0  0  0  0  0  0  0  0  0  0  0
    1.3060    1.8460   -0.0090 H   0  0  0  0  0  0  0  0  0  0  0  0
   -0.6790    1.0780   -0.0080 C   0  0  0  0  0  0  0  0  0  0  0  0
   -1.1140    2.0600   -0.0110 H   0  0  0  0  0  0  0  0  0  0  0  0
   -1.4750   -0.0400   -0.0060 C   0  0  0  0  0  0  0  0  0  0  0  0
   -2.5500    0.0160   -0.0070 H   0  0  0  0  0  0  0  0  0  0  0  0
   -0.8250   -1.2720   -0.0030 C   0  0  0  0  0  0  0  0  0  0  0  0
  1  2  1  0  0  0  0
  1  3  1  0  0  0  0
  1  4  1  0  0  0  0
  1  5  1  0  0  0  0
  5  6  1  0  0  0  0
  6  7  2  0  0  0  0
  6  8  1  0  0  0  0
  8  9  2  0  0  0  0
  8 21  1  0  0  0  0
  9 10  1  0  0  0  0
  9 11  1  0  0  0  0
 11 12  1  0  0  0  0
 11 13  1  0  0  0  0
 13 14  1  0  0  0  0
 13 21  2  0  0  0  0
 14 15  2  0  0  0  0
 15 16  1  0  0  0  0
 15 17  1  0  0  0  0
 17 18  1  0  0  0  0
 17 19  2  0  0  0  0
 19 20  1  0  0  0  0
 19 21  1  0  0  0  0
M  END
>  <Catalog ID>
Z1079133092

>  <a_acc>
3

>  <a_don>
2

>  <a_heavy>
13

>  <logP>
1.193

>  <logS>
-2.5079899

>  <TPSA>
54.98

>  <Weight>
176.175

$$$$
Z404012058
  MOE2024           3D

 24 25  0  0  0  0  0  0  0  0999 V2000
    2.5900   -0.1940    0.7780 N   0  0  0  0  0  0  0  0  0  0  0  0
    2.9120    0.3890    1.5570 H   0  0  0  0  0  0  0  0  0  0  0  0
    2.8670   -1.1720    0.8990 H   0  0  0  0  0  0  0  0  0  0  0  0
    1.2900    0.0210    0.3590 C   0  0  0  0  0  0  0  0  0  0  0  0
    0.5960   -0.9740   -0.3170 C   0  0  0  0  0  0  0  0  0  0  0  0
    1.0820   -1.9100   -0.5210 H   0  0  0  0  0  0  0  0  0  0  0  0
   -0.7100   -0.7710   -0.7270 C   0  0  0  0  0  0  0  0  0  0  0  0
   -1.2410   -1.5510   -1.2440 H   0  0  0  0  0  0  0  0  0  0  0  0
   -1.3330    0.4390   -0.4710 C   0  0  0  0  0  0  0  0  0  0  0  0
   -2.3480    0.6080   -0.7830 H   0  0  0  0  0  0  0  0  0  0  0  0
   -0.6440    1.4450    0.1880 C   0  0  0  0  0  0  0  0  0  0  0  0
    0.6620    1.2320    0.6110 C   0  0  0  0  0  0  0  0  0  0  0  0
    1.1910    2.0020    1.1380 H   0  0  0  0  0  0  0  0  0  0  0  0
   -1.2860    2.6200    0.4110 O   0  0  0  0  0  0  0  0  0  0  0  0
   -0.6630    3.8130    0.3070 C   0  0  0  0  0  0  0  0  0  0  0  0
    0.2810    4.0360   -0.6940 C   0  0  0  0  0  0  0  0  0  0  0  0
    0.5170    3.2570   -1.3960 H   0  0  0  0  0  0  0  0  0  0  0  0
    0.9060    5.2600   -0.7800 C   0  0  0  0  0  0  0  0  0  0  0  0
    1.6430    5.4660   -1.5380 H   0  0  0  0  0  0  0  0  0  0  0  0
    0.5400    6.2090    0.1520 C   0  0  0  0  0  0  0  0  0  0  0  0
    0.9890    7.1860    0.1410 H   0  0  0  0  0  0  0  0  0  0  0  0
   -0.4150    5.8930    1.1030 C   0  0  0  0  0  0  0  0  0  0  0  0
   -0.6940    6.6450    1.8220 H   0  0  0  0  0  0  0  0  0  0  0  0
   -1.0240    4.7230    1.2030 N   0  0  0  0  0  0  0  0  0  0  0  0
  1  2  1  0  0  0  0
  1  3  1  0  0  0  0
  1  4  1  0  0  0  0
  4  5  1  0  0  0  0
  4 12  2  0  0  0  0
  5  6  1  0  0  0  0
  5  7  2  0  0  0  0
  7  8  1  0  0  0  0
  7  9  1  0  0  0  0
  9 10  1  0  0  0  0
  9 11  2  0  0  0  0
 11 12  1  0  0  0  0
 11 14  1  0  0  0  0
 12 13  1  0  0  0  0
 14 15  1  0  0  0  0
 15 16  1  0  0  0  0
 15 24  2  0  0  0  0
 16 17  1  0  0  0  0
 16 18  2  0  0  0  0
 18 19  1  0  0  0  0
 18 20  1  0  0  0  0
 20 21  1  0  0  0  0
 20 22  2  0  0  0  0
 22 23  1  0  0  0  0
 22 24  1  0  0  0  0
M  END
>  <Catalog ID>
Z404012058

>  <a_acc>
1

>  <a_don>
1

>  <a_heavy>
14

>  <logP>
2.0539999

>  <logS>
-1.94159

>  <TPSA>
48.139999

>  <Weight>
186.21399

$$$$
Z104482458
  MOE2024           3D

 23 24  0  0  0  0  0  0  0  0999 V2000
    2.0200   -6.2470   -0.0470 C   0  0  0  0  0  0  0  0  0  0  0  0
    2.8010   -6.4950   -0.7410 H   0  0  0  0  0  0  0  0  0  0  0  0
    1.0980   -6.6730   -0.3980 H   0  0  0  0  0  0  0  0  0  0  0  0
    2.2500   -6.6690    0.9140 H   0  0  0  0  0  0  0  0  0  0  0  0
    1.9020   -4.7410    0.0750 C   0  0  0  0  0  0  0  0  0  0  0  0
    2.9590   -4.0670    0.4530 O   0  0  0  0  0  0  0  0  0  0  0  0
    2.6010   -2.8070    0.4760 N   0  0  0  0  0  0  0  0  0  0  0  0
    1.3570   -2.6810    0.1330 C   0  0  0  0  0  0  0  0  0  0  0  0
    0.8430   -3.9430   -0.1600 C   0  0  0  0  0  0  0  0  0  0  0  0
   -0.4830   -4.2850   -0.6040 C   0  0  0  0  0  0  0  0  0  0  0  0
   -1.0880   -3.5800   -1.4260 O   0  5  0  0  0  0  0  0  0  0  0  0
   -1.0400   -5.3080   -0.1700 O   0  0  0  0  0  0  0  0  0  0  0  0
    0.6770   -1.3960    0.1120 C   0  0  0  0  0  0  0  0  0  0  0  0
    1.3670   -0.2410   -0.2590 C   0  0  0  0  0  0  0  0  0  0  0  0
    2.3980   -0.3290   -0.5500 H   0  0  0  0  0  0  0  0  0  0  0  0
    0.7590    1.0020   -0.2630 C   0  0  0  0  0  0  0  0  0  0  0  0
    1.3180    1.8720   -0.5560 H   0  0  0  0  0  0  0  0  0  0  0  0
   -0.5680    1.1220    0.1090 C   0  0  0  0  0  0  0  0  0  0  0  0
   -1.0480    2.0840    0.1050 H   0  0  0  0  0  0  0  0  0  0  0  0
   -1.2770   -0.0070    0.4800 C   0  0  0  0  0  0  0  0  0  0  0  0
   -2.3110    0.0700    0.7630 H   0  0  0  0  0  0  0  0  0  0  0  0
   -0.6590   -1.2440    0.4820 C   0  0  0  0  0  0  0  0  0  0  0  0
   -1.2270   -2.1120    0.7670 H   0  0  0  0  0  0  0  0  0  0  0  0
  1  2  1  0  0  0  0
  1  3  1  0  0  0  0
  1  4  1  0  0  0  0
  1  5  1  0  0  0  0
  5  6  1  0  0  0  0
  5  9  2  0  0  0  0
  6  7  1  0  0  0  0
  7  8  2  0  0  0  0
  8  9  1  0  0  0  0
  8 13  1  0  0  0  0
  9 10  1  0  0  0  0
 10 11  1  0  0  0  0
 10 12  2  0  0  0  0
 13 14  1  0  0  0  0
 13 22  2  0  0  0  0
 14 15  1  0  0  0  0
 14 16  2  0  0  0  0
 16 17  1  0  0  0  0
 16 18  1  0  0  0  0
 18 19  1  0  0  0  0
 18 20  2  0  0  0  0
 20 21  1  0  0  0  0
 20 22  1  0  0  0  0
 22 23  1  0  0  0  0
M  CHG  1  11  -1
M  END
>  <Catalog ID>
Z104482458

>  <a_acc>
1

>  <a_don>
0

>  <a_heavy>
15

>  <logP>
2.1270001

>  <logS>
-2.96965

>  <TPSA>
66.160004

>  <Weight>
202.189

$$$$
Z976688982
  MOE2024           3D

 31 32  0  0  0  0  0  0  0  0999 V2000
    3.4060   -1.3160    0.6120 F   0  0  0  0  0  0  0  0  0  0  0  0
    2.8630   -0.2860   -0.0260 C   0  0  0  0  0  0  0  0  0  0  0  0
    3.1320   -0.4580   -1.3130 F   0  0  0  0  0  0  0  0  0  0  0  0
    3.5380    0.7900    0.3550 F   0  0  0  0  0  0  0  0  0  0  0  0
    1.3660   -0.1370    0.2290 C   0  0  0  0  0  0  0  0  0  0  0  0
    0.6590   -0.9570    1.0950 C   0  0  0  0  0  0  0  0  0  0  0  0
    1.1300   -1.7570    1.6450 H   0  0  0  0  0  0  0  0  0  0  0  0
   -0.6890   -0.7120    1.2310 C   0  0  0  0  0  0  0  0  0  0  0  0
   -1.2960   -1.3110    1.8840 H   0  0  0  0  0  0  0  0  0  0  0  0
   -1.2750    0.3200    0.5150 C   0  0  0  0  0  0  0  0  0  0  0  0
   -0.6120    1.1180   -0.3170 N   0  0  0  0  0  0  0  0  0  0  0  0
    0.6820    0.8670   -0.4370 C   0  0  0  0  0  0  0  0  0  0  0  0
    1.2290    1.5070   -1.1120 H   0  0  0  0  0  0  0  0  0  0  0  0
   -2.6000    0.5110    0.6860 O   0  0  0  0  0  0  0  0  0  0  0  0
   -3.3020    1.5260    0.0070 C   0  0  0  0  0  0  0  0  0  0  0  0
   -2.9340    1.5880   -1.0050 H   0  0  0  0  0  0  0  0  0  0  0  0
   -3.1030    2.8530    0.7490 C   0  0  0  0  0  0  0  0  0  0  0  0
   -2.0740    3.1560    0.6770 H   0  0  0  0  0  0  0  0  0  0  0  0
   -3.3440    2.7350    1.7910 H   0  0  0  0  0  0  0  0  0  0  0  0
   -3.9740    3.9450    0.1390 C   0  0  0  0  0  0  0  0  0  0  0  0
   -3.6560    4.1320   -0.8750 H   0  0  0  0  0  0  0  0  0  0  0  0
   -3.8580    4.8570    0.7030 H   0  0  0  0  0  0  0  0  0  0  0  0
   -5.3980    3.5090    0.1510 N   0  3  0  0  0  0  0  0  0  0  0  0
   -5.9900    4.2580   -0.2300 H   0  0  0  0  0  0  0  0  0  0  0  0
   -5.6900    3.3670    1.1270 H   0  0  0  0  0  0  0  0  0  0  0  0
   -5.6310    2.2480   -0.6080 C   0  0  0  0  0  0  0  0  0  0  0  0
   -5.3660    2.3920   -1.6440 H   0  0  0  0  0  0  0  0  0  0  0  0
   -6.6730    1.9730   -0.5610 H   0  0  0  0  0  0  0  0  0  0  0  0
   -4.7780    1.1280   -0.0170 C   0  0  0  0  0  0  0  0  0  0  0  0
   -5.1180    0.9030    0.9780 H   0  0  0  0  0  0  0  0  0  0  0  0
   -4.8950    0.2440   -0.6190 H   0  0  0  0  0  0  0  0  0  0  0  0
  1  2  1  0  0  0  0
  2  3  1  0  0  0  0
  2  4  1  0  0  0  0
  2  5  1  0  0  0  0
  5  6  1  0  0  0  0
  5 12  2  0  0  0  0
  6  7  1  0  0  0  0
  6  8  2  0  0  0  0
  8  9  1  0  0  0  0
  8 10  1  0  0  0  0
 10 11  2  0  0  0  0
 10 14  1  0  0  0  0
 11 12  1  0  0  0  0
 12 13  1  0  0  0  0
 14 15  1  0  0  0  0
 15 16  1  0  0  0  0
 15 17  1  0  0  0  0
 15 29  1  0  0  0  0
 17 18  1  0  0  0  0
 17 19  1  0  0  0  0
 17 20  1  0  0  0  0
 20 21  1  0  0  0  0
 20 22  1  0  0  0  0
 20 23  1  0  0  0  0
 23 24  1  0  0  0  0
 23 25  1  0  0  0  0
 23 26  1  0  0  0  0
 26 27  1  0  0  0  0
 26 28  1  0  0  0  0
 26 29  1  0  0  0  0
 29 30  1  0  0  0  0
 29 31  1  0  0  0  0
M  CHG  1  23   1
M  END
>  <Catalog ID>
Z976688982

>  <a_acc>
1

>  <a_don>
0

>  <a_heavy>
17

>  <logP>
2.2307601

>  <logS>
-1.83986

>  <TPSA>
38.73

>  <Weight>
247.23999

$$$$
Z19674820
  MOE2024           3D

 19 19  0  0  0  0  0  0  0  0999 V2000
    4.9670   -1.2000    0.0010 C   0  0  0  0  0  0  0  0  0  0  0  0
    5.2590   -2.2350    0.0020 H   0  0  0  0  0  0  0  0  0  0  0  0
    5.3370   -0.7080    0.8830 H   0  0  0  0  0  0  0  0  0  0  0  0
    5.3380   -0.7090   -0.8820 H   0  0  0  0  0  0  0  0  0  0  0  0
    3.5540   -1.1340    0.0000 O   0  0  0  0  0  0  0  0  0  0  0  0
    2.9030    0.0350    0.0000 C   0  0  0  0  0  0  0  0  0  0  0  0
    3.5510    1.0620   -0.0010 O   0  0  0  0  0  0  0  0  0  0  0  0
    1.4520    0.0100   -0.0010 C   0  0  0  0  0  0  0  0  0  0  0  0
    0.7290   -1.1880   -0.0020 C   0  0  0  0  0  0  0  0  0  0  0  0
    1.2560   -2.1260   -0.0030 H   0  0  0  0  0  0  0  0  0  0  0  0
   -0.6540   -1.1990   -0.0020 C   0  0  0  0  0  0  0  0  0  0  0  0
   -1.1980   -2.1270   -0.0020 H   0  0  0  0  0  0  0  0  0  0  0  0
   -1.3520   -0.0060   -0.0010 C   0  0  0  0  0  0  0  0  0  0  0  0
   -2.6890   -0.0290    0.0000 O   0  0  0  0  0  0  0  0  0  0  0  0
   -3.1010    0.8530    0.0010 H   0  0  0  0  0  0  0  0  0  0  0  0
   -0.6690    1.1990    0.0000 C   0  0  0  0  0  0  0  0  0  0  0  0
   -1.2060    2.1300    0.0010 H   0  0  0  0  0  0  0  0  0  0  0  0
    0.7130    1.1990    0.0000 C   0  0  0  0  0  0  0  0  0  0  0  0
    1.2410    2.1380    0.0010 H   0  0  0  0  0  0  0  0  0  0  0  0
  1  2  1  0  0  0  0
  1  3  1  0  0  0  0
  1  4  1  0  0  0  0
  1  5  1  0  0  0  0
  5  6  1  0  0  0  0
  6  7  2  0  0  0  0
  6  8  1  0  0  0  0
  8  9  1  0  0  0  0
  8 18  2  0  0  0  0
  9 10  1  0  0  0  0
  9 11  2  0  0  0  0
 11 12  1  0  0  0  0
 11 13  1  0  0  0  0
 13 14  1  0  0  0  0
 13 16  2  0  0  0  0
 14 15  1  0  0  0  0
 16 17  1  0  0  0  0
 16 18  1  0  0  0  0
 18 19  1  0  0  0  0
M  END
>  <Catalog ID>
Z19674820

>  <a_acc>
2

>  <a_don>
1

>  <a_heavy>
11

>  <logP>
1.539

>  <logS>
-1.40466

>  <TPSA>
46.529999

>  <Weight>
152.149

$$$$
Z57073754
  MOE2024           3D

 15 15  0  0  0  0  0  0  0  0999 V2000
    3.5160    1.0900   -0.0010 O   0  5  0  0  0  0  0  0  0  0  0  0
    2.8820    0.0200    0.0000 C   0  0  0  0  0  0  0  0  0  0  0  0
    3.5140   -1.0510    0.0010 O   0  0  0  0  0  0  0  0  0  0  0  0
    1.4250    0.0240    0.0000 C   0  0  0  0  0  0  0  0  0  0  0  0
    0.6890   -1.1680    0.0010 C   0  0  0  0  0  0  0  0  0  0  0  0
    1.2330   -2.1000    0.0010 H   0  0  0  0  0  0  0  0  0  0  0  0
   -0.6970   -1.1820    0.0010 C   0  0  0  0  0  0  0  0  0  0  0  0
   -1.2340   -2.1130    0.0010 H   0  0  0  0  0  0  0  0  0  0  0  0
   -1.3940    0.0130    0.0000 C   0  0  0  0  0  0  0  0  0  0  0  0
   -2.7400    0.0110    0.0000 O   0  0  0  0  0  0  0  0  0  0  0  0
   -3.0940    0.9210   -0.0010 H   0  0  0  0  0  0  0  0  0  0  0  0
   -0.6750    1.2010   -0.0010 C   0  0  0  0  0  0  0  0  0  0  0  0
   -1.3300    2.3370   -0.0020 F   0  0  0  0  0  0  0  0  0  0  0  0
    0.7040    1.2230   -0.0010 C   0  0  0  0  0  0  0  0  0  0  0  0
    1.2340    2.1590   -0.0020 H   0  0  0  0  0  0  0  0  0  0  0  0
  1  2  1  0  0  0  0
  2  3  2  0  0  0  0
  2  4  1  0  0  0  0
  4  5  1  0  0  0  0
  4 14  2  0  0  0  0
  5  6  1  0  0  0  0
  5  7  2  0  0  0  0
  7  8  1  0  0  0  0
  7  9  1  0  0  0  0
  9 10  1  0  0  0  0
  9 12  2  0  0  0  0
 10 11  1  0  0  0  0
 12 13  1  0  0  0  0
 12 14  1  0  0  0  0
 14 15  1  0  0  0  0
M  CHG  1   1  -1
M  END
>  <Catalog ID>
Z57073754

>  <a_acc>
1

>  <a_don>
1

>  <a_heavy>
11

>  <logP>
1.584

>  <logS>
-1.54776

>  <TPSA>
60.360001

>  <Weight>
155.10399

$$$$
Z57127875
  MOE2024           3D

 17 17  0  0  0  0  0  0  0  0999 V2000
    2.8740    0.0110    0.0130 C   0  0  0  0  0  0  0  0  0  0  0  0
    3.2670   -0.9900    0.0240 H   0  0  0  0  0  0  0  0  0  0  0  0
    3.2260    0.5270    0.8870 H   0  0  0  0  0  0  0  0  0  0  0  0
    3.2440    0.5150   -0.8620 H   0  0  0  0  0  0  0  0  0  0  0  0
    1.3570   -0.0010   -0.0040 C   0  0  0  0  0  0  0  0  0  0  0  0
    0.6540   -1.1960   -0.0110 C   0  0  0  0  0  0  0  0  0  0  0  0
    1.1810   -2.1340   -0.0060 H   0  0  0  0  0  0  0  0  0  0  0  0
   -0.7290   -1.1930   -0.0260 C   0  0  0  0  0  0  0  0  0  0  0  0
   -1.2670   -2.1220   -0.0380 H   0  0  0  0  0  0  0  0  0  0  0  0
   -1.4330    0.0030   -0.0320 C   0  0  0  0  0  0  0  0  0  0  0  0
   -2.8160    0.0040   -0.0340 N   0  0  0  0  0  0  0  0  0  0  0  0
   -3.2620    0.8520    0.3230 H   0  0  0  0  0  0  0  0  0  0  0  0
   -3.2640   -0.8430    0.3240 H   0  0  0  0  0  0  0  0  0  0  0  0
   -0.7260    1.1970   -0.0310 C   0  0  0  0  0  0  0  0  0  0  0  0
   -1.2610    2.1270   -0.0460 H   0  0  0  0  0  0  0  0  0  0  0  0
    0.6570    1.1960   -0.0160 C   0  0  0  0  0  0  0  0  0  0  0  0
    1.1900    2.1300   -0.0140 H   0  0  0  0  0  0  0  0  0  0  0  0
  1  2  1  0  0  0  0
  1  3  1  0  0  0  0
  1  4  1  0  0  0  0
  1  5  1  0  0  0  0
  5  6  1  0  0  0  0
  5 16  2  0  0  0  0
  6  7  1  0  0  0  0
  6  8  2  0  0  0  0
  8  9  1  0  0  0  0
  8 10  1  0  0  0  0
 10 11  1  0  0  0  0
 10 14  2  0  0  0  0
 11 12  1  0  0  0  0
 11 13  1  0  0  0  0
 14 15  1  0  0  0  0
 14 16  1  0  0  0  0
 16 17  1  0  0  0  0
M  END
>  <Catalog ID>
Z57127875

>  <a_acc>
0

>  <a_don>
1

>  <a_heavy>
8

>  <logP>
1.5319999

>  <logS>
-1.57968

>  <TPSA>
26.02

>  <Weight>
107.156

$$$$
Z104473462
  MOE2024           3D

 11 11  0  0  0  0  0  0  0  0999 V2000
    3.3210    1.0270   -0.0010 O   0  5  0  0  0  0  0  0  0  0  0  0
    2.6530   -0.0270   -0.0070 C   0  0  0  0  0  0  0  0  0  0  0  0
    3.2670   -1.1110   -0.0160 O   0  0  0  0  0  0  0  0  0  0  0  0
    1.1990    0.0480   -0.0030 C   0  0  0  0  0  0  0  0  0  0  0  0
    0.4030    1.1530    0.0060 C   0  0  0  0  0  0  0  0  0  0  0  0
    0.7410    2.1750    0.0130 H   0  0  0  0  0  0  0  0  0  0  0  0
   -0.9200    0.7090    0.0050 C   0  0  0  0  0  0  0  0  0  0  0  0
   -1.7920    1.3360    0.0110 H   0  0  0  0  0  0  0  0  0  0  0  0
   -0.8440   -0.6380   -0.0050 C   0  0  0  0  0  0  0  0  0  0  0  0
   -1.6170   -1.3850   -0.0090 H   0  0  0  0  0  0  0  0  0  0  0  0
    0.4100   -1.0300   -0.0100 O   0  0  0  0  0  0  0  0  0  0  0  0
  1  2  1  0  0  0  0
  2  3  2  0  0  0  0
  2  4  1  0  0  0  0
  4  5  2  0  0  0  0
  4 11  1  0  0  0  0
  5  6  1  0  0  0  0
  5  7  1  0  0  0  0
  7  8  1  0  0  0  0
  7  9  2  0  0  0  0
  9 10  1  0  0  0  0
  9 11  1  0  0  0  0
M  CHG  1   1  -1
M  END
>  <Catalog ID>
Z104473462

>  <a_acc>
0

>  <a_don>
0

>  <a_heavy>
8

>  <logP>
0.419

>  <logS>
-1.3663

>  <TPSA>
53.27

>  <Weight>
111.076

$$$$
Z425794824
  MOE2024           3D

 16 16  0  0  0  0  0  0  0  0999 V2000
    4.6180   -1.2570    0.0060 O   0  0  0  0  0  0  0  0  0  0  0  0
    5.0230   -2.1480    0.0110 H   0  0  0  0  0  0  0  0  0  0  0  0
    3.2330   -1.3550    0.0050 C   0  0  0  0  0  0  0  0  0  0  0  0
    2.9280   -1.8880    0.8900 H   0  0  0  0  0  0  0  0  0  0  0  0
    2.9300   -1.8970   -0.8750 H   0  0  0  0  0  0  0  0  0  0  0  0
    2.6450    0.0570   -0.0030 C   0  0  0  0  0  0  0  0  0  0  0  0
    2.9730    0.5770   -0.8830 H   0  0  0  0  0  0  0  0  0  0  0  0
    2.9740    0.5880    0.8700 H   0  0  0  0  0  0  0  0  0  0  0  0
    1.1670    0.0390   -0.0030 N   0  0  0  0  0  0  0  0  0  0  0  0
    0.3750    1.1310    0.0020 C   0  0  0  0  0  0  0  0  0  0  0  0
    0.7580    2.1350    0.0060 H   0  0  0  0  0  0  0  0  0  0  0  0
   -0.9030    0.6990    0.0000 C   0  0  0  0  0  0  0  0  0  0  0  0
   -1.8130    1.2720    0.0030 H   0  0  0  0  0  0  0  0  0  0  0  0
   -0.8050   -0.6860   -0.0060 C   0  0  0  0  0  0  0  0  0  0  0  0
   -1.6490   -1.3570   -0.0090 H   0  0  0  0  0  0  0  0  0  0  0  0
    0.4280   -1.0910   -0.0080 N   0  0  0  0  0  0  0  0  0  0  0  0
  1  2  1  0  0  0  0
  1  3  1  0  0  0  0
  3  4  1  0  0  0  0
  3  5  1  0  0  0  0
  3  6  1  0  0  0  0
  6  7  1  0  0  0  0
  6  8  1  0  0  0  0
  6  9  1  0  0  0  0
  9 10  1  0  0  0  0
  9 16  1  0  0  0  0
 10 11  1  0  0  0  0
 10 12  2  0  0  0  0
 12 13  1  0  0  0  0
 12 14  1  0  0  0  0
 14 15  1  0  0  0  0
 14 16  2  0  0  0  0
M  END
>  <Catalog ID>
Z425794824

>  <a_acc>
2

>  <a_don>
1

>  <a_heavy>
8

>  <logP>
-0.81099999

>  <logS>
0.48761001

>  <TPSA>
38.049999

>  <Weight>
112.132

$$$$
Z104477768
  MOE2024           3D

 18 18  0  0  0  0  0  0  0  0999 V2000
    2.6550    0.0620   -0.0010 C   0  0  0  0  0  0  0  0  0  0  0  0
    2.9420    1.0980   -0.0060 H   0  0  0  0  0  0  0  0  0  0  0  0
    3.0620   -0.4140   -0.8740 H   0  0  0  0  0  0  0  0  0  0  0  0
    3.0590   -0.4050    0.8780 H   0  0  0  0  0  0  0  0  0  0  0  0
    1.1460   -0.0650   -0.0020 C   0  0  0  0  0  0  0  0  0  0  0  0
    0.4150    1.1100   -0.0080 N   0  0  0  0  0  0  0  0  0  0  0  0
   -0.8350    0.8730   -0.0080 C   0  0  0  0  0  0  0  0  0  0  0  0
   -1.6470    1.5780   -0.0110 H   0  0  0  0  0  0  0  0  0  0  0  0
   -1.2510   -0.8240   -0.0010 S   0  0  0  0  0  0  0  0  0  0  0  0
    0.4510   -1.2150    0.0020 C   0  0  0  0  0  0  0  0  0  0  0  0
    0.9120   -2.6680    0.0080 C   0  0  0  0  0  0  0  0  0  0  0  0
    1.5140   -2.8290    0.8840 H   0  0  0  0  0  0  0  0  0  0  0  0
    1.5260   -2.8330   -0.8590 H   0  0  0  0  0  0  0  0  0  0  0  0
   -0.2300   -3.6870    0.0020 C   0  0  0  0  0  0  0  0  0  0  0  0
   -0.8320   -3.5810   -0.8840 H   0  0  0  0  0  0  0  0  0  0  0  0
   -0.8440   -3.5780    0.8800 H   0  0  0  0  0  0  0  0  0  0  0  0
    0.3150   -4.9620    0.0080 O   0  0  0  0  0  0  0  0  0  0  0  0
   -0.3890   -5.6400    0.0050 H   0  0  0  0  0  0  0  0  0  0  0  0
  1  2  1  0  0  0  0
  1  3  1  0  0  0  0
  1  4  1  0  0  0  0
  1  5  1  0  0  0  0
  5  6  1  0  0  0  0
  5 10  2  0  0  0  0
  6  7  2  0  0  0  0
  7  8  1  0  0  0  0
  7  9  1  0  0  0  0
  9 10  1  0  0  0  0
 10 11  1  0  0  0  0
 11 12  1  0  0  0  0
 11 13  1  0  0  0  0
 11 14  1  0  0  0  0
 14 15  1  0  0  0  0
 14 16  1  0  0  0  0
 14 17  1  0  0  0  0
 17 18  1  0  0  0  0
M  END
>  <Catalog ID>
Z104477768

>  <a_acc>
2

>  <a_don>
1

>  <a_heavy>
9

>  <logP>
0.059999999

>  <logS>
-0.55330998

>  <TPSA>
33.119999

>  <Weight>
143.21001

$$$$
Z199537270
  MOE2024           3D

 20 20  0  0  0  0  0  0  0  0999 V2000
    2.4490    0.3700    1.3370 C   0  0  0  0  0  0  0  0  0  0  0  0
    1.9040    0.7960    2.1590 H   0  0  0  0  0  0  0  0  0  0  0  0
    3.1670    1.0880    0.9810 H   0  0  0  0  0  0  0  0  0  0  0  0
    2.9830   -0.4980    1.6820 H   0  0  0  0  0  0  0  0  0  0  0  0
    1.5090   -0.0320    0.1830 C   0  0  0  0  0  0  0  0  0  0  0  0
    0.6600    1.1710   -0.2690 C   0  0  0  0  0  0  0  0  0  0  0  0
    1.1950    1.8150   -0.9470 H   0  0  0  0  0  0  0  0  0  0  0  0
    0.3580    1.7480    0.5870 H   0  0  0  0  0  0  0  0  0  0  0  0
   -0.5830    0.5640   -0.9210 C   0  0  0  0  0  0  0  0  0  0  0  0
   -0.4080    0.4580   -1.9790 H   0  0  0  0  0  0  0  0  0  0  0  0
   -1.4480    1.1830   -0.7650 H   0  0  0  0  0  0  0  0  0  0  0  0
   -0.7500   -0.8260   -0.2970 C   0  0  0  0  0  0  0  0  0  0  0  0
   -0.6770   -1.5730   -1.0700 H   0  0  0  0  0  0  0  0  0  0  0  0
   -1.6950   -0.9290    0.2060 H   0  0  0  0  0  0  0  0  0  0  0  0
    0.4150   -0.9960    0.6800 C   0  0  0  0  0  0  0  0  0  0  0  0
    0.0910   -0.7040    1.6630 H   0  0  0  0  0  0  0  0  0  0  0  0
    0.7610   -2.0150    0.7180 H   0  0  0  0  0  0  0  0  0  0  0  0
    2.3360   -0.6560   -0.9790 C   0  0  0  0  0  0  0  0  0  0  0  0
    2.6490    0.0360   -1.9590 O   0  5  0  0  0  0  0  0  0  0  0  0
    2.7120   -1.8330   -0.8870 O   0  0  0  0  0  0  0  0  0  0  0  0
  1  2  1  0  0  0  0
  1  3  1  0  0  0  0
  1  4  1  0  0  0  0
  1  5  1  0  0  0  0
  5  6  1  0  0  0  0
  5 15  1  0  0  0  0
  5 18  1  0  0  0  0
  6  7  1  0  0  0  0
  6  8  1  0  0  0  0
  6  9  1  0  0  0  0
  9 10  1  0  0  0  0
  9 11  1  0  0  0  0
  9 12  1  0  0  0  0
 12 13  1  0  0  0  0
 12 14  1  0  0  0  0
 12 15  1  0  0  0  0
 15 16  1  0  0  0  0
 15 17  1  0  0  0  0
 18 19  1  0  0  0  0
 18 20  2  0  0  0  0
M  CHG  1  19  -1
M  END
>  <Catalog ID>
Z199537270

>  <a_acc>
0

>  <a_don>
0

>  <a_heavy>
9

>  <logP>
1.633

>  <logS>
-1.3879

>  <TPSA>
40.130001

>  <Weight>
127.16299

$$$$
Z57833933
  MOE2024           3D

 16 17  0  0  0  0  0  0  0  0999 V2000
    0.0070   -3.3910    0.0080 C   0  0  0  0  0  0  0  0  0  0  0  0
   -0.0700   -4.4640    0.0110 H   0  0  0  0  0  0  0  0  0  0  0  0
    1.1230   -2.6230    0.0020 C   0  0  0  0  0  0  0  0  0  0  0  0
    2.1510   -2.9410   -0.0030 H   0  0  0  0  0  0  0  0  0  0  0  0
    0.7160   -1.2720    0.0010 C   0  0  0  0  0  0  0  0  0  0  0  0
    1.4000   -0.0520   -0.0040 C   0  0  0  0  0  0  0  0  0  0  0  0
    2.4750   -0.0560   -0.0100 H   0  0  0  0  0  0  0  0  0  0  0  0
    0.6870    1.1240   -0.0030 C   0  0  0  0  0  0  0  0  0  0  0  0
    1.1990    2.0700   -0.0080 H   0  0  0  0  0  0  0  0  0  0  0  0
   -0.7140    1.1070    0.0030 C   0  0  0  0  0  0  0  0  0  0  0  0
   -1.2480    2.0410    0.0040 H   0  0  0  0  0  0  0  0  0  0  0  0
   -1.4000   -0.0860    0.0090 C   0  0  0  0  0  0  0  0  0  0  0  0
   -2.4750   -0.1070    0.0140 H   0  0  0  0  0  0  0  0  0  0  0  0
   -0.6750   -1.2810    0.0080 C   0  0  0  0  0  0  0  0  0  0  0  0
   -1.0970   -2.5860    0.0120 N   0  0  0  0  0  0  0  0  0  0  0  0
   -2.0760   -2.8900    0.0180 H   0  0  0  0  0  0  0  0  0  0  0  0
  1  2  1  0  0  0  0
  1  3  2  0  0  0  0
  1 15  1  0  0  0  0
  3  4  1  0  0  0  0
  3  5  1  0  0  0  0
  5  6  1  0  0  0  0
  5 14  2  0  0  0  0
  6  7  1  0  0  0  0
  6  8  2  0  0  0  0
  8  9  1  0  0  0  0
  8 10  1  0  0  0  0
 10 11  1  0  0  0  0
 10 12  2  0  0  0  0
 12 13  1  0  0  0  0
 12 14  1  0  0  0  0
 14 15  1  0  0  0  0
 15 16  1  0  0  0  0
M  END
>  <Catalog ID>
Z57833933

>  <a_acc>
0

>  <a_don>
1

>  <a_heavy>
9

>  <logP>
2.2750001

>  <logS>
-1.67478

>  <TPSA>
15.79

>  <Weight>
117.151

$$$$
Z385373334
  MOE2024           3D

 13 13  0  0  0  0  0  0  0  0999 V2000
    2.6800    0.2200    0.0000 C   0  0  0  0  0  0  0  0  0  0  0  0
    2.9810    1.2520   -0.0070 H   0  0  0  0  0  0  0  0  0  0  0  0
    3.0710   -0.2670   -0.8740 H   0  0  0  0  0  0  0  0  0  0  0  0
    3.0710   -0.2560    0.8800 H   0  0  0  0  0  0  0  0  0  0  0  0
    1.1740    0.1300    0.0000 C   0  0  0  0  0  0  0  0  0  0  0  0
    0.3300    1.0810   -0.0060 N   0  0  0  0  0  0  0  0  0  0  0  0
   -0.9620    0.5830   -0.0040 C   0  0  0  0  0  0  0  0  0  0  0  0
   -1.7830    1.2800   -0.0080 H   0  0  0  0  0  0  0  0  0  0  0  0
   -1.1280   -0.7560    0.0050 C   0  0  0  0  0  0  0  0  0  0  0  0
    0.4690   -1.4690    0.0100 S   0  0  0  0  0  0  0  0  0  0  0  0
   -2.3180   -1.5640    0.0090 C   0  0  0  0  0  0  0  0  0  0  0  0
   -2.2640   -2.8070    0.0160 O   0  5  0  0  0  0  0  0  0  0  0  0
   -3.4320   -1.0110    0.0060 O   0  0  0  0  0  0  0  0  0  0  0  0
  1  2  1  0  0  0  0
  1  3  1  0  0  0  0
  1  4  1  0  0  0  0
  1  5  1  0  0  0  0
  5  6  2  0  0  0  0
  5 10  1  0  0  0  0
  6  7  1  0  0  0  0
  7  8  1  0  0  0  0
  7  9  2  0  0  0  0
  9 10  1  0  0  0  0
  9 11  1  0  0  0  0
 11 12  1  0  0  0  0
 11 13  2  0  0  0  0
M  CHG  1  12  -1
M  END
>  <Catalog ID>
Z385373334

>  <a_acc>
1

>  <a_don>
0

>  <a_heavy>
9

>  <logP>
0.528

>  <logS>
-0.62957001

>  <TPSA>
53.02

>  <Weight>
142.158

$$$$
Z104474062
  MOE2024           3D

 14 14  0  0  0  0  0  0  0  0999 V2000
    3.5640    1.0560    0.0210 O   0  5  0  0  0  0  0  0  0  0  0  0
    2.9340   -0.0160    0.0190 C   0  0  0  0  0  0  0  0  0  0  0  0
    3.5700   -1.0850    0.0240 O   0  0  0  0  0  0  0  0  0  0  0  0
    1.4760   -0.0190    0.0120 C   0  0  0  0  0  0  0  0  0  0  0  0
    0.7460   -1.2120    0.0090 C   0  0  0  0  0  0  0  0  0  0  0  0
    1.2930   -2.1420    0.0130 H   0  0  0  0  0  0  0  0  0  0  0  0
   -0.6390   -1.2260    0.0010 C   0  0  0  0  0  0  0  0  0  0  0  0
   -1.1640   -2.1640   -0.0010 H   0  0  0  0  0  0  0  0  0  0  0  0
   -1.3390   -0.0330   -0.0040 C   0  0  0  0  0  0  0  0  0  0  0  0
   -2.4130   -0.0190   -0.0100 H   0  0  0  0  0  0  0  0  0  0  0  0
   -0.6330    1.1550   -0.0010 C   0  0  0  0  0  0  0  0  0  0  0  0
   -1.5150    2.6630   -0.0080 Cl  0  0  0  0  0  0  0  0  0  0  0  0
    0.7470    1.1720    0.0060 C   0  0  0  0  0  0  0  0  0  0  0  0
    1.2750    2.1110    0.0080 H   0  0  0  0  0  0  0  0  0  0  0  0
  1  2  1  0  0  0  0
  2  3  2  0  0  0  0
  2  4  1  0  0  0  0
  4  5  1  0  0  0  0
  4 13  2  0  0  0  0
  5  6  1  0  0  0  0
  5  7  2  0  0  0  0
  7  8  1  0  0  0  0
  7  9  1  0  0  0  0
  9 10  1  0  0  0  0
  9 11  2  0  0  0  0
 11 12  1  0  0  0  0
 11 13  1  0  0  0  0
 13 14  1  0  0  0  0
M  CHG  1   1  -1
M  END
>  <Catalog ID>
Z104474062

>  <a_acc>
0

>  <a_don>
0

>  <a_heavy>
10

>  <logP>
2.3329999

>  <logS>
-2.34902

>  <TPSA>
40.130001

>  <Weight>
155.56

$$$$
Z57127446
  MOE2024           3D

 16 16  0  0  0  0  0  0  0  0999 V2000
    2.7930    0.0140   -0.0720 N   0  0  0  0  0  0  0  0  0  0  0  0
    3.2500    0.8640    0.2670 H   0  0  0  0  0  0  0  0  0  0  0  0
    3.2530   -0.8380    0.2560 H   0  0  0  0  0  0  0  0  0  0  0  0
    1.4130    0.0120   -0.0550 C   0  0  0  0  0  0  0  0  0  0  0  0
    0.7050   -1.1820   -0.0450 C   0  0  0  0  0  0  0  0  0  0  0  0
    1.2360   -2.1140   -0.0700 H   0  0  0  0  0  0  0  0  0  0  0  0
   -0.6760   -1.1830   -0.0060 C   0  0  0  0  0  0  0  0  0  0  0  0
   -1.2160   -2.1150    0.0040 H   0  0  0  0  0  0  0  0  0  0  0  0
   -1.4110    0.0060    0.0230 C   0  0  0  0  0  0  0  0  0  0  0  0
   -0.6810    1.1970    0.0020 C   0  0  0  0  0  0  0  0  0  0  0  0
   -1.2250    2.1270    0.0180 H   0  0  0  0  0  0  0  0  0  0  0  0
    0.7000    1.2030   -0.0370 C   0  0  0  0  0  0  0  0  0  0  0  0
    1.2280    2.1360   -0.0560 H   0  0  0  0  0  0  0  0  0  0  0  0
   -2.8670    0.0020    0.0700 C   0  0  0  0  0  0  0  0  0  0  0  0
   -3.5020   -1.0690    0.0890 O   0  5  0  0  0  0  0  0  0  0  0  0
   -3.5070    1.0710    0.0960 O   0  0  0  0  0  0  0  0  0  0  0  0
  1  2  1  0  0  0  0
  1  3  1  0  0  0  0
  1  4  1  0  0  0  0
  4  5  1  0  0  0  0
  4 12  2  0  0  0  0
  5  6  1  0  0  0  0
  5  7  2  0  0  0  0
  7  8  1  0  0  0  0
  7  9  1  0  0  0  0
  9 10  2  0  0  0  0
  9 14  1  0  0  0  0
 10 11  1  0  0  0  0
 10 12  1  0  0  0  0
 12 13  1  0  0  0  0
 14 15  1  0  0  0  0
 14 16  2  0  0  0  0
M  CHG  1  15  -1
M  END
>  <Catalog ID>
Z57127446

>  <a_acc>
0

>  <a_don>
1

>  <a_heavy>
10

>  <logP>
1.0319999

>  <logS>
-1.33561

>  <TPSA>
66.150002

>  <Weight>
136.12999

$$$$
Z104473570
  MOE2024           3D

 20 20  0  0  0  0  0  0  0  0999 V2000
    5.7480   -2.2320    0.0150 O   0  0  0  0  0  0  0  0  0  0  0  0
    6.7090   -2.0540    0.0110 H   0  0  0  0  0  0  0  0  0  0  0  0
    5.0290   -1.0440    0.0100 C   0  0  0  0  0  0  0  0  0  0  0  0
    5.2900   -0.4950   -0.8790 H   0  0  0  0  0  0  0  0  0  0  0  0
    5.2950   -0.4830    0.8890 H   0  0  0  0  0  0  0  0  0  0  0  0
    3.5390   -1.3700    0.0170 C   0  0  0  0  0  0  0  0  0  0  0  0
    3.2790   -1.9140    0.9070 H   0  0  0  0  0  0  0  0  0  0  0  0
    3.2740   -1.9260   -0.8660 H   0  0  0  0  0  0  0  0  0  0  0  0
    2.8180   -0.1560    0.0110 O   0  0  0  0  0  0  0  0  0  0  0  0
    1.4620   -0.1440    0.0080 C   0  0  0  0  0  0  0  0  0  0  0  0
    0.6760   -1.2950    0.0110 C   0  0  0  0  0  0  0  0  0  0  0  0
    1.1170   -2.2730    0.0160 H   0  0  0  0  0  0  0  0  0  0  0  0
   -0.7040   -1.1900    0.0060 C   0  0  0  0  0  0  0  0  0  0  0  0
   -1.3100   -2.0790    0.0080 H   0  0  0  0  0  0  0  0  0  0  0  0
   -1.3080    0.0560    0.0000 C   0  0  0  0  0  0  0  0  0  0  0  0
   -2.3820    0.1330   -0.0040 H   0  0  0  0  0  0  0  0  0  0  0  0
   -0.5310    1.2010   -0.0030 C   0  0  0  0  0  0  0  0  0  0  0  0
   -0.9990    2.1700   -0.0080 H   0  0  0  0  0  0  0  0  0  0  0  0
    0.8490    1.0990    0.0010 C   0  0  0  0  0  0  0  0  0  0  0  0
    1.4590    1.9830   -0.0010 H   0  0  0  0  0  0  0  0  0  0  0  0
  1  2  1  0  0  0  0
  1  3  1  0  0  0  0
  3  4  1  0  0  0  0
  3  5  1  0  0  0  0
  3  6  1  0  0  0  0
  6  7  1  0  0  0  0
  6  8  1  0  0  0  0
  6  9  1  0  0  0  0
  9 10  1  0  0  0  0
 10 11  1  0  0  0  0
 10 19  2  0  0  0  0
 11 12  1  0  0  0  0
 11 13  2  0  0  0  0
 13 14  1  0  0  0  0
 13 15  1  0  0  0  0
 15 16  1  0  0  0  0
 15 17  2  0  0  0  0
 17 18  1  0  0  0  0
 17 19  1  0  0  0  0
 19 20  1  0  0  0  0
M  END
>  <Catalog ID>
Z104473570

>  <a_acc>
2

>  <a_don>
1

>  <a_heavy>
10

>  <logP>
1.168

>  <logS>
-1.23272

>  <TPSA>
29.459999

>  <Weight>
138.166

$$$$
Z104473324
  MOE2024           3D

 14 14  0  0  0  0  0  0  0  0999 V2000
    3.5680    1.0710   -0.0010 O   0  5  0  0  0  0  0  0  0  0  0  0
    2.9340    0.0000   -0.0010 C   0  0  0  0  0  0  0  0  0  0  0  0
    3.5680   -1.0700    0.0000 O   0  0  0  0  0  0  0  0  0  0  0  0
    1.4750    0.0000   -0.0010 C   0  0  0  0  0  0  0  0  0  0  0  0
    0.7490   -1.1950    0.0000 C   0  0  0  0  0  0  0  0  0  0  0  0
    1.2940   -2.1250    0.0000 H   0  0  0  0  0  0  0  0  0  0  0  0
   -0.6350   -1.2020    0.0000 C   0  0  0  0  0  0  0  0  0  0  0  0
   -1.1780   -2.1280    0.0010 H   0  0  0  0  0  0  0  0  0  0  0  0
   -1.3150    0.0000    0.0000 C   0  0  0  0  0  0  0  0  0  0  0  0
   -3.0600    0.0000    0.0000 Cl  0  0  0  0  0  0  0  0  0  0  0  0
   -0.6350    1.2030   -0.0010 C   0  0  0  0  0  0  0  0  0  0  0  0
   -1.1780    2.1290   -0.0010 H   0  0  0  0  0  0  0  0  0  0  0  0
    0.7490    1.1950   -0.0010 C   0  0  0  0  0  0  0  0  0  0  0  0
    1.2940    2.1250   -0.0020 H   0  0  0  0  0  0  0  0  0  0  0  0
  1  2  1  0  0  0  0
  2  3  2  0  0  0  0
  2  4  1  0  0  0  0
  4  5  1  0  0  0  0
  4 13  2  0  0  0  0
  5  6  1  0  0  0  0
  5  7  2  0  0  0  0
  7  8  1  0  0  0  0
  7  9  1  0  0  0  0
  9 10  1  0  0  0  0
  9 11  2  0  0  0  0
 11 12  1  0  0  0  0
 11 13  1  0  0  0  0
 13 14  1  0  0  0  0
M  CHG  1   1  -1
M  END
>  <Catalog ID>
Z104473324

>  <a_acc>
0

>  <a_don>
0

>  <a_heavy>
10

>  <logP>
2.296

>  <logS>
-2.34902

>  <TPSA>
40.130001

>  <Weight>
155.56

$$$$
Z414314668
  MOE2024           3D

 15 15  0  0  0  0  0  0  0  0999 V2000
    2.7600   -0.1870    0.3830 N   0  0  0  0  0  0  0  0  0  0  0  0
    3.1980    0.7650    0.4010 H   0  0  0  0  0  0  0  0  0  0  0  0
    3.2390   -0.7330   -0.3320 H   0  0  0  0  0  0  0  0  0  0  0  0
    1.3940   -0.0450    0.2100 C   0  0  0  0  0  0  0  0  0  0  0  0
    0.5540   -1.1610    0.2230 C   0  0  0  0  0  0  0  0  0  0  0  0
    1.0200   -2.1150    0.3840 H   0  0  0  0  0  0  0  0  0  0  0  0
   -0.7580   -1.1560    0.0620 N   0  0  0  0  0  0  0  0  0  0  0  0
   -1.2750    0.0510   -0.1150 C   0  0  0  0  0  0  0  0  0  0  0  0
   -2.3420    0.1060   -0.2460 H   0  0  0  0  0  0  0  0  0  0  0  0
   -0.5460    1.2230   -0.1440 C   0  0  0  0  0  0  0  0  0  0  0  0
   -1.0510    2.1620   -0.2950 H   0  0  0  0  0  0  0  0  0  0  0  0
    0.8360    1.2230    0.0150 C   0  0  0  0  0  0  0  0  0  0  0  0
    1.5920    2.4650   -0.0380 C   0  0  0  0  0  0  0  0  0  0  0  0
    1.0010    3.5510   -0.1820 O   0  5  0  0  0  0  0  0  0  0  0  0
    2.8390    2.4840    0.0400 O   0  0  0  0  0  0  0  0  0  0  0  0
  1  2  1  0  0  0  0
  1  3  1  0  0  0  0
  1  4  1  0  0  0  0
  4  5  1  0  0  0  0
  4 12  2  0  0  0  0
  5  6  1  0  0  0  0
  5  7  2  0  0  0  0
  7  8  1  0  0  0  0
  8  9  1  0  0  0  0
  8 10  2  0  0  0  0
 10 11  1  0  0  0  0
 10 12  1  0  0  0  0
 12 13  1  0  0  0  0
 13 14  1  0  0  0  0
 13 15  2  0  0  0  0
M  CHG  1  14  -1
M  END
>  <Catalog ID>
Z414314668

>  <a_acc>
1

>  <a_don>
1

>  <a_heavy>
10

>  <logP>
-0.20299999

>  <logS>
-0.077469997

>  <TPSA>
79.040001

>  <Weight>
137.118

$$$$
Z1259162108
  MOE2024           3D

 17 18  0  0  0  0  0  0  0  0999 V2000
   -3.3440    1.2930    0.1820 N   0  0  0  0  0  0  0  0  0  0  0  0
   -3.4110    0.2690    0.1190 H   0  0  0  0  0  0  0  0  0  0  0  0
   -3.9970    1.7470   -0.4600 H   0  0  0  0  0  0  0  0  0  0  0  0
   -2.0250    1.7230    0.1070 C   0  0  0  0  0  0  0  0  0  0  0  0
   -1.7120    3.0690    0.0750 C   0  0  0  0  0  0  0  0  0  0  0  0
   -2.5030    3.7940    0.1180 H   0  0  0  0  0  0  0  0  0  0  0  0
   -0.3850    3.5050   -0.0040 C   0  0  0  0  0  0  0  0  0  0  0  0
   -0.1820    4.5610   -0.0240 H   0  0  0  0  0  0  0  0  0  0  0  0
    0.6520    2.5980   -0.0510 C   0  0  0  0  0  0  0  0  0  0  0  0
    1.6750    2.9250   -0.1100 H   0  0  0  0  0  0  0  0  0  0  0  0
    0.3420    1.2360   -0.0200 C   0  0  0  0  0  0  0  0  0  0  0  0
    1.1020    0.1130   -0.0550 N   0  0  0  0  0  0  0  0  0  0  0  0
    2.1220    0.0670   -0.1070 H   0  0  0  0  0  0  0  0  0  0  0  0
    0.2300   -0.9260   -0.0070 C   0  0  0  0  0  0  0  0  0  0  0  0
    0.5690   -1.9480   -0.0230 H   0  0  0  0  0  0  0  0  0  0  0  0
   -1.0060   -0.5740    0.0560 N   0  0  0  0  0  0  0  0  0  0  0  0
   -0.9660    0.7960    0.0560 C   0  0  0  0  0  0  0  0  0  0  0  0
  1  2  1  0  0  0  0
  1  3  1  0  0  0  0
  1  4  1  0  0  0  0
  4  5  1  0  0  0  0
  4 17  2  0  0  0  0
  5  6  1  0  0  0  0
  5  7  2  0  0  0  0
  7  8  1  0  0  0  0
  7  9  1  0  0  0  0
  9 10  1  0  0  0  0
  9 11  2  0  0  0  0
 11 12  1  0  0  0  0
 11 17  1  0  0  0  0
 12 13  1  0  0  0  0
 12 14  1  0  0  0  0
 14 15  1  0  0  0  0
 14 16  2  0  0  0  0
 16 17  1  0  0  0  0
M  END
>  <Catalog ID>
Z1259162108

>  <a_acc>
2

>  <a_don>
3

>  <a_heavy>
10

>  <logP>
0.61400002

>  <logS>
-1.52546

>  <TPSA>
54.700001

>  <Weight>
133.15399

$$$$
Z979311300
  MOE2024           3D

 19 20  0  0  0  0  0  0  0  0999 V2000
   -2.8440    4.1050    0.0060 C   0  0  0  0  0  0  0  0  0  0  0  0
   -2.4480    5.1040    0.0060 H   0  0  0  0  0  0  0  0  0  0  0  0
   -3.4560    3.9780    0.8810 H   0  0  0  0  0  0  0  0  0  0  0  0
   -3.4580    3.9800   -0.8680 H   0  0  0  0  0  0  0  0  0  0  0  0
   -1.7300    3.0750    0.0040 C   0  0  0  0  0  0  0  0  0  0  0  0
   -0.3900    3.4880    0.0040 C   0  0  0  0  0  0  0  0  0  0  0  0
   -0.1610    4.5390    0.0050 H   0  0  0  0  0  0  0  0  0  0  0  0
    0.6330    2.5680    0.0030 C   0  0  0  0  0  0  0  0  0  0  0  0
    1.6610    2.8830    0.0030 H   0  0  0  0  0  0  0  0  0  0  0  0
    0.3180    1.2080    0.0020 C   0  0  0  0  0  0  0  0  0  0  0  0
    1.1250    0.0980    0.0020 N   0  0  0  0  0  0  0  0  0  0  0  0
    2.1490    0.1130    0.0020 H   0  0  0  0  0  0  0  0  0  0  0  0
    0.3250   -1.0100    0.0010 C   0  0  0  0  0  0  0  0  0  0  0  0
    0.7300   -2.0060    0.0000 H   0  0  0  0  0  0  0  0  0  0  0  0
   -0.9750   -0.6260    0.0010 C   0  0  0  0  0  0  0  0  0  0  0  0
   -1.8530   -1.2470    0.0000 H   0  0  0  0  0  0  0  0  0  0  0  0
   -1.0060    0.7850    0.0020 C   0  0  0  0  0  0  0  0  0  0  0  0
   -2.0350    1.7320    0.0020 C   0  0  0  0  0  0  0  0  0  0  0  0
   -3.0520    1.3890    0.0020 H   0  0  0  0  0  0  0  0  0  0  0  0
  1  2  1  0  0  0  0
  1  3  1  0  0  0  0
  1  4  1  0  0  0  0
  1  5  1  0  0  0  0
  5  6  1  0  0  0  0
  5 18  2  0  0  0  0
  6  7  1  0  0  0  0
  6  8  2  0  0  0  0
  8  9  1  0  0  0  0
  8 10  1  0  0  0  0
 10 11  1  0  0  0  0
 10 17  2  0  0  0  0
 11 12  1  0  0  0  0
 11 13  1  0  0  0  0
 13 14  1  0  0  0  0
 13 15  2  0  0  0  0
 15 16  1  0  0  0  0
 15 17  1  0  0  0  0
 17 18  1  0  0  0  0
 18 19  1  0  0  0  0
M  END
>  <Catalog ID>
Z979311300

>  <a_acc>
0

>  <a_don>
1

>  <a_heavy>
10

>  <logP>
2.6099999

>  <logS>
-2.1487

>  <TPSA>
15.79

>  <Weight>
131.17799

$$$$
Z57124104
  MOE2024           3D

 14 14  0  0  0  0  0  0  0  0999 V2000
    3.5420    1.0740   -0.0100 O   0  5  0  0  0  0  0  0  0  0  0  0
    2.8790    0.0220   -0.0050 C   0  0  0  0  0  0  0  0  0  0  0  0
    3.4750   -1.0680   -0.0010 O   0  0  0  0  0  0  0  0  0  0  0  0
    1.4320    0.0720   -0.0030 C   0  0  0  0  0  0  0  0  0  0  0  0
    0.6860   -1.1050    0.0030 C   0  0  0  0  0  0  0  0  0  0  0  0
    1.2300   -2.0360    0.0060 H   0  0  0  0  0  0  0  0  0  0  0  0
   -0.6410   -1.1860    0.0050 N   0  0  0  0  0  0  0  0  0  0  0  0
   -1.2710   -0.0200    0.0010 C   0  0  0  0  0  0  0  0  0  0  0  0
   -2.3450   -0.0390    0.0030 H   0  0  0  0  0  0  0  0  0  0  0  0
   -0.6410    1.2170   -0.0050 C   0  0  0  0  0  0  0  0  0  0  0  0
   -1.3520    2.3580   -0.0080 O   0  0  0  0  0  0  0  0  0  0  0  0
   -0.7730    3.1420   -0.0130 H   0  0  0  0  0  0  0  0  0  0  0  0
    0.7350    1.2730   -0.0070 C   0  0  0  0  0  0  0  0  0  0  0  0
    1.2770    2.2030   -0.0120 H   0  0  0  0  0  0  0  0  0  0  0  0
  1  2  1  0  0  0  0
  2  3  2  0  0  0  0
  2  4  1  0  0  0  0
  4  5  1  0  0  0  0
  4 13  2  0  0  0  0
  5  6  1  0  0  0  0
  5  7  2  0  0  0  0
  7  8  1  0  0  0  0
  8  9  1  0  0  0  0
  8 10  2  0  0  0  0
 10 11  1  0  0  0  0
 10 13  1  0  0  0  0
 11 12  1  0  0  0  0
 13 14  1  0  0  0  0
M  CHG  1   1  -1
M  END
>  <Catalog ID>
Z57124104

>  <a_acc>
2

>  <a_don>
1

>  <a_heavy>
10

>  <logP>
0.199

>  <logS>
0.0053599998

>  <TPSA>
73.25

>  <Weight>
138.10199

$$$$
Z1160902020
  MOE2024           3D

 16 17  0  0  0  0  0  0  0  0999 V2000
   -2.6790    3.9570   -0.0100 F   0  0  0  0  0  0  0  0  0  0  0  0
   -1.7270    3.0580   -0.0060 C   0  0  0  0  0  0  0  0  0  0  0  0
   -0.4040    3.5090   -0.0020 C   0  0  0  0  0  0  0  0  0  0  0  0
   -0.2090    4.5660   -0.0020 H   0  0  0  0  0  0  0  0  0  0  0  0
    0.6190    2.5870    0.0010 C   0  0  0  0  0  0  0  0  0  0  0  0
    1.6480    2.8990    0.0040 H   0  0  0  0  0  0  0  0  0  0  0  0
    0.2970    1.2240    0.0010 C   0  0  0  0  0  0  0  0  0  0  0  0
    1.1090    0.1170    0.0040 N   0  0  0  0  0  0  0  0  0  0  0  0
    2.1340    0.1350    0.0070 H   0  0  0  0  0  0  0  0  0  0  0  0
    0.3150   -0.9940    0.0030 C   0  0  0  0  0  0  0  0  0  0  0  0
    0.7270   -1.9890    0.0050 H   0  0  0  0  0  0  0  0  0  0  0  0
   -0.9870   -0.6210   -0.0010 C   0  0  0  0  0  0  0  0  0  0  0  0
   -1.8600   -1.2490   -0.0040 H   0  0  0  0  0  0  0  0  0  0  0  0
   -1.0290    0.7900   -0.0030 C   0  0  0  0  0  0  0  0  0  0  0  0
   -2.0660    1.7280   -0.0060 C   0  0  0  0  0  0  0  0  0  0  0  0
   -3.0900    1.4080   -0.0100 H   0  0  0  0  0  0  0  0  0  0  0  0
  1  2  1  0  0  0  0
  2  3  1  0  0  0  0
  2 15  2  0  0  0  0
  3  4  1  0  0  0  0
  3  5  2  0  0  0  0
  5  6  1  0  0  0  0
  5  7  1  0  0  0  0
  7  8  1  0  0  0  0
  7 14  2  0  0  0  0
  8  9  1  0  0  0  0
  8 10  1  0  0  0  0
 10 11  1  0  0  0  0
 10 12  2  0  0  0  0
 12 13  1  0  0  0  0
 12 14  1  0  0  0  0
 14 15  1  0  0  0  0
 15 16  1  0  0  0  0
M  END
>  <Catalog ID>
Z1160902020

>  <a_acc>
0

>  <a_don>
1

>  <a_heavy>
10

>  <logP>
2.4649999

>  <logS>
-1.9697599

>  <TPSA>
15.79

>  <Weight>
135.14099

$$$$
Z57182011
  MOE2024           3D

 18 18  0  0  0  0  0  0  0  0999 V2000
    5.7480   -0.9450    0.9960 O   0  5  0  0  0  0  0  0  0  0  0  0
    5.1030   -1.1850   -0.0330 C   0  0  0  0  0  0  0  0  0  0  0  0
    5.6580   -1.3690   -1.1250 O   0  0  0  0  0  0  0  0  0  0  0  0
    3.5950   -1.3680    0.0680 C   0  0  0  0  0  0  0  0  0  0  0  0
    3.3690   -1.7320    1.0510 H   0  0  0  0  0  0  0  0  0  0  0  0
    3.2960   -2.0840   -0.6730 H   0  0  0  0  0  0  0  0  0  0  0  0
    2.8530   -0.1660   -0.1460 O   0  0  0  0  0  0  0  0  0  0  0  0
    1.4980   -0.1550   -0.0780 C   0  0  0  0  0  0  0  0  0  0  0  0
    0.7260   -1.2830    0.1890 C   0  0  0  0  0  0  0  0  0  0  0  0
    1.1860   -2.2380    0.3570 H   0  0  0  0  0  0  0  0  0  0  0  0
   -0.6540   -1.1820    0.2420 C   0  0  0  0  0  0  0  0  0  0  0  0
   -1.2470   -2.0540    0.4490 H   0  0  0  0  0  0  0  0  0  0  0  0
   -1.2700    0.0400    0.0290 C   0  0  0  0  0  0  0  0  0  0  0  0
   -2.3420    0.1160    0.0710 H   0  0  0  0  0  0  0  0  0  0  0  0
   -0.5060    1.1640   -0.2380 C   0  0  0  0  0  0  0  0  0  0  0  0
   -0.9810    2.1140   -0.4040 H   0  0  0  0  0  0  0  0  0  0  0  0
    0.8730    1.0630   -0.2910 C   0  0  0  0  0  0  0  0  0  0  0  0
    1.4810    1.9250   -0.4960 H   0  0  0  0  0  0  0  0  0  0  0  0
  1  2  1  0  0  0  0
  2  3  2  0  0  0  0
  2  4  1  0  0  0  0
  4  5  1  0  0  0  0
  4  6  1  0  0  0  0
  4  7  1  0  0  0  0
  7  8  1  0  0  0  0
  8  9  1  0  0  0  0
  8 17  2  0  0  0  0
  9 10  1  0  0  0  0
  9 11  2  0  0  0  0
 11 12  1  0  0  0  0
 11 13  1  0  0  0  0
 13 14  1  0  0  0  0
 13 15  2  0  0  0  0
 15 16  1  0  0  0  0
 15 17  1  0  0  0  0
 17 18  1  0  0  0  0
M  CHG  1   1  -1
M  END
>  <Catalog ID>
Z57182011

>  <a_acc>
1

>  <a_don>
0

>  <a_heavy>
11

>  <logP>
1.488

>  <logS>
-1.69155

>  <TPSA>
49.360001

>  <Weight>
151.14099

$$$$
Z104479892
  MOE2024           3D

 26 26  0  0  0  0  0  0  0  0999 V2000
    5.6830   -0.2250   -0.8490 O   0  5  0  0  0  0  0  0  0  0  0  0
    5.2390   -1.2400   -0.3010 C   0  0  0  0  0  0  0  0  0  0  0  0
    5.9330   -2.2420   -0.1050 O   0  0  0  0  0  0  0  0  0  0  0  0
    3.7960   -1.2890    0.1620 C   0  0  0  0  0  0  0  0  0  0  0  0
    3.8130   -1.4220    1.2260 H   0  0  0  0  0  0  0  0  0  0  0  0
    3.3690   -2.1670   -0.2790 H   0  0  0  0  0  0  0  0  0  0  0  0
    2.9550   -0.0450   -0.1970 C   0  0  0  0  0  0  0  0  0  0  0  0
    2.9270    0.0590   -1.2680 H   0  0  0  0  0  0  0  0  0  0  0  0
    3.4680    0.8200    0.1910 H   0  0  0  0  0  0  0  0  0  0  0  0
    1.5240   -0.0770    0.3720 C   0  0  0  0  0  0  0  0  0  0  0  0
    1.5890   -0.2260    1.4370 H   0  0  0  0  0  0  0  0  0  0  0  0
    0.6860   -1.2230   -0.2290 C   0  0  0  0  0  0  0  0  0  0  0  0
    1.1260   -2.1700    0.0240 H   0  0  0  0  0  0  0  0  0  0  0  0
    0.6850   -1.1360   -1.3020 H   0  0  0  0  0  0  0  0  0  0  0  0
   -0.7600   -1.2030    0.2850 C   0  0  0  0  0  0  0  0  0  0  0  0
   -0.7610   -1.4040    1.3420 H   0  0  0  0  0  0  0  0  0  0  0  0
   -1.3240   -1.9810   -0.2000 H   0  0  0  0  0  0  0  0  0  0  0  0
   -1.4270    0.1530    0.0250 C   0  0  0  0  0  0  0  0  0  0  0  0
   -2.4180    0.1540    0.4420 H   0  0  0  0  0  0  0  0  0  0  0  0
   -1.5120    0.3100   -1.0360 H   0  0  0  0  0  0  0  0  0  0  0  0
   -0.6060    1.2920    0.6410 C   0  0  0  0  0  0  0  0  0  0  0  0
   -0.5960    1.1870    1.7130 H   0  0  0  0  0  0  0  0  0  0  0  0
   -1.0640    2.2360    0.4040 H   0  0  0  0  0  0  0  0  0  0  0  0
    0.8370    1.2760    0.1190 C   0  0  0  0  0  0  0  0  0  0  0  0
    0.8330    1.4810   -0.9380 H   0  0  0  0  0  0  0  0  0  0  0  0
    1.3970    2.0580    0.6020 H   0  0  0  0  0  0  0  0  0  0  0  0
  1  2  1  0  0  0  0
  2  3  2  0  0  0  0
  2  4  1  0  0  0  0
  4  5  1  0  0  0  0
  4  6  1  0  0  0  0
  4  7  1  0  0  0  0
  7  8  1  0  0  0  0
  7  9  1  0  0  0  0
  7 10  1  0  0  0  0
 10 11  1  0  0  0  0
 10 12  1  0  0  0  0
 10 24  1  0  0  0  0
 12 13  1  0  0  0  0
 12 14  1  0  0  0  0
 12 15  1  0  0  0  0
 15 16  1  0  0  0  0
 15 17  1  0  0  0  0
 15 18  1  0  0  0  0
 18 19  1  0  0  0  0
 18 20  1  0  0  0  0
 18 21  1  0  0  0  0
 21 22  1  0  0  0  0
 21 23  1  0  0  0  0
 21 24  1  0  0  0  0
 24 25  1  0  0  0  0
 24 26  1  0  0  0  0
M  CHG  1   1  -1
M  END
>  <Catalog ID>
Z104479892

>  <a_acc>
0

>  <a_don>
0

>  <a_heavy>
11

>  <logP>
2.5910001

>  <logS>
-3.0452399

>  <TPSA>
40.130001

>  <Weight>
155.217

$$$$
Z57169486
  MOE2024           3D

 17 18  0  0  0  0  0  0  0  0999 V2000
   -1.3620   -4.7260   -0.0020 O   0  0  0  0  0  0  0  0  0  0  0  0
   -0.6960   -3.7120   -0.0010 C   0  0  0  0  0  0  0  0  0  0  0  0
    0.7330   -3.7170    0.0000 C   0  0  0  0  0  0  0  0  0  0  0  0
    1.1960   -4.6850    0.0000 H   0  0  0  0  0  0  0  0  0  0  0  0
    1.4400   -2.5660    0.0000 C   0  0  0  0  0  0  0  0  0  0  0  0
    2.5160   -2.5440    0.0010 H   0  0  0  0  0  0  0  0  0  0  0  0
    0.7380   -1.3210    0.0000 C   0  0  0  0  0  0  0  0  0  0  0  0
    1.3750   -0.0820    0.0010 C   0  0  0  0  0  0  0  0  0  0  0  0
    2.4500   -0.0390    0.0010 H   0  0  0  0  0  0  0  0  0  0  0  0
    0.6420    1.0890    0.0000 C   0  0  0  0  0  0  0  0  0  0  0  0
    1.1450    2.0420    0.0010 H   0  0  0  0  0  0  0  0  0  0  0  0
   -0.7450    1.0460    0.0000 C   0  0  0  0  0  0  0  0  0  0  0  0
   -1.3110    1.9620   -0.0010 H   0  0  0  0  0  0  0  0  0  0  0  0
   -1.3950   -0.1730   -0.0010 C   0  0  0  0  0  0  0  0  0  0  0  0
   -2.4700   -0.2180   -0.0010 H   0  0  0  0  0  0  0  0  0  0  0  0
   -0.6630   -1.3510   -0.0010 C   0  0  0  0  0  0  0  0  0  0  0  0
   -1.3250   -2.5320   -0.0010 O   0  0  0  0  0  0  0  0  0  0  0  0
  1  2  2  0  0  0  0
  2  3  1  0  0  0  0
  2 17  1  0  0  0  0
  3  4  1  0  0  0  0
  3  5  2  0  0  0  0
  5  6  1  0  0  0  0
  5  7  1  0  0  0  0
  7  8  1  0  0  0  0
  7 16  2  0  0  0  0
  8  9  1  0  0  0  0
  8 10  2  0  0  0  0
 10 11  1  0  0  0  0
 10 12  1  0  0  0  0
 12 13  1  0  0  0  0
 12 14  2  0  0  0  0
 14 15  1  0  0  0  0
 14 16  1  0  0  0  0
 16 17  1  0  0  0  0
M  END
>  <Catalog ID>
Z57169486

>  <a_acc>
1

>  <a_don>
0

>  <a_heavy>
11

>  <logP>
2.175

>  <logS>
-2.7709999

>  <TPSA>
26.299999

>  <Weight>
146.14499

$$$$
Z234895085
  MOE2024           3D

 19 20  0  0  0  0  0  0  0  0999 V2000
   -1.3970   -4.9540   -0.0280 N   0  0  0  0  0  0  0  0  0  0  0  0
   -2.3780   -4.9680    0.2630 H   0  0  0  0  0  0  0  0  0  0  0  0
   -0.8780   -5.7770    0.2950 H   0  0  0  0  0  0  0  0  0  0  0  0
   -0.7440   -3.7270   -0.0270 C   0  0  0  0  0  0  0  0  0  0  0  0
    0.6670   -3.6420   -0.0250 C   0  0  0  0  0  0  0  0  0  0  0  0
    1.2080   -4.5700   -0.0380 H   0  0  0  0  0  0  0  0  0  0  0  0
    1.3540   -2.5400   -0.0080 N   0  0  0  0  0  0  0  0  0  0  0  0
    0.6540   -1.3760   -0.0010 C   0  0  0  0  0  0  0  0  0  0  0  0
    1.3550   -0.1610    0.0170 C   0  0  0  0  0  0  0  0  0  0  0  0
    2.4280   -0.2100    0.0270 H   0  0  0  0  0  0  0  0  0  0  0  0
    0.7040    1.0450    0.0230 C   0  0  0  0  0  0  0  0  0  0  0  0
    1.2550    1.9700    0.0370 H   0  0  0  0  0  0  0  0  0  0  0  0
   -0.6940    1.0800    0.0080 C   0  0  0  0  0  0  0  0  0  0  0  0
   -1.1940    2.0340    0.0110 H   0  0  0  0  0  0  0  0  0  0  0  0
   -1.4090   -0.0870   -0.0090 C   0  0  0  0  0  0  0  0  0  0  0  0
   -2.4840   -0.0660   -0.0210 H   0  0  0  0  0  0  0  0  0  0  0  0
   -0.7600   -1.3390   -0.0130 C   0  0  0  0  0  0  0  0  0  0  0  0
   -1.4530   -2.5580   -0.0260 C   0  0  0  0  0  0  0  0  0  0  0  0
   -2.5260   -2.5590   -0.0390 H   0  0  0  0  0  0  0  0  0  0  0  0
  1  2  1  0  0  0  0
  1  3  1  0  0  0  0
  1  4  1  0  0  0  0
  4  5  1  0  0  0  0
  4 18  2  0  0  0  0
  5  6  1  0  0  0  0
  5  7  2  0  0  0  0
  7  8  1  0  0  0  0
  8  9  1  0  0  0  0
  8 17  2  0  0  0  0
  9 10  1  0  0  0  0
  9 11  2  0  0  0  0
 11 12  1  0  0  0  0
 11 13  1  0  0  0  0
 13 14  1  0  0  0  0
 13 15  2  0  0  0  0
 15 16  1  0  0  0  0
 15 17  1  0  0  0  0
 17 18  1  0  0  0  0
 18 19  1  0  0  0  0
M  END
>  <Catalog ID>
Z234895085

>  <a_acc>
1

>  <a_don>
1

>  <a_heavy>
11

>  <logP>
1.472

>  <logS>
-1.6943001

>  <TPSA>
38.91

>  <Weight>
144.177

$$$$
Z56767838
  MOE2024           3D

 21 22  0  0  0  0  0  0  0  0999 V2000
   -1.2150   -5.6410    0.0090 C   0  0  0  0  0  0  0  0  0  0  0  0
   -0.8950   -6.6700    0.0130 H   0  0  0  0  0  0  0  0  0  0  0  0
   -1.8140   -5.4690   -0.8690 H   0  0  0  0  0  0  0  0  0  0  0  0
   -1.8110   -5.4610    0.8890 H   0  0  0  0  0  0  0  0  0  0  0  0
   -0.0290   -4.7450    0.0040 N   0  0  0  0  0  0  0  0  0  0  0  0
    0.8680   -5.2330    0.0000 H   0  0  0  0  0  0  0  0  0  0  0  0
   -0.0270   -3.4180    0.0040 C   0  0  0  0  0  0  0  0  0  0  0  0
    1.0660   -2.6680    0.0000 N   0  0  0  0  0  0  0  0  0  0  0  0
    2.0300   -2.9930   -0.0020 H   0  0  0  0  0  0  0  0  0  0  0  0
    0.6800   -1.3380    0.0010 C   0  0  0  0  0  0  0  0  0  0  0  0
    1.4040   -0.1530   -0.0020 C   0  0  0  0  0  0  0  0  0  0  0  0
    2.4790   -0.1660   -0.0050 H   0  0  0  0  0  0  0  0  0  0  0  0
    0.7060    1.0410   -0.0010 C   0  0  0  0  0  0  0  0  0  0  0  0
    1.2380    1.9780   -0.0040 H   0  0  0  0  0  0  0  0  0  0  0  0
   -0.6910    1.0520    0.0030 C   0  0  0  0  0  0  0  0  0  0  0  0
   -1.2090    1.9970    0.0030 H   0  0  0  0  0  0  0  0  0  0  0  0
   -1.4080   -0.1300    0.0060 C   0  0  0  0  0  0  0  0  0  0  0  0
   -2.4840   -0.1280    0.0090 H   0  0  0  0  0  0  0  0  0  0  0  0
   -0.7030   -1.3270    0.0050 C   0  0  0  0  0  0  0  0  0  0  0  0
   -1.1060   -2.6500    0.0070 N   0  3  0  0  0  0  0  0  0  0  0  0
   -2.0650   -2.9870    0.0100 H   0  0  0  0  0  0  0  0  0  0  0  0
  1  2  1  0  0  0  0
  1  3  1  0  0  0  0
  1  4  1  0  0  0  0
  1  5  1  0  0  0  0
  5  6  1  0  0  0  0
  5  7  1  0  0  0  0
  7  8  1  0  0  0  0
  7 20  2  0  0  0  0
  8  9  1  0  0  0  0
  8 10  1  0  0  0  0
 10 11  1  0  0  0  0
 10 19  2  0  0  0  0
 11 12  1  0  0  0  0
 11 13  2  0  0  0  0
 13 14  1  0  0  0  0
 13 15  1  0  0  0  0
 15 16  1  0  0  0  0
 15 17  2  0  0  0  0
 17 18  1  0  0  0  0
 17 19  1  0  0  0  0
 19 20  1  0  0  0  0
 20 21  1  0  0  0  0
M  CHG  1  20   1
M  END
>  <Catalog ID>
Z56767838

>  <a_acc>
0

>  <a_don>
0

>  <a_heavy>
11

>  <logP>
1.852

>  <logS>
-2.17839

>  <TPSA>
41.959999

>  <Weight>
148.189

$$$$
Z728187792
  MOE2024           3D

 18 19  0  0  0  0  0  0  0  0999 V2000
    1.9620   -4.7120   -0.0030 C   0  0  0  0  0  0  0  0  0  0  0  0
    1.7760   -5.7740   -0.0080 H   0  0  0  0  0  0  0  0  0  0  0  0
    3.1580   -4.0870    0.0100 C   0  0  0  0  0  0  0  0  0  0  0  0
    4.1510   -4.4980    0.0180 H   0  0  0  0  0  0  0  0  0  0  0  0
    2.8900   -2.7730    0.0130 N   0  0  0  0  0  0  0  0  0  0  0  0
    3.5620   -2.0040    0.0230 H   0  0  0  0  0  0  0  0  0  0  0  0
    1.5360   -2.6550    0.0010 C   0  0  0  0  0  0  0  0  0  0  0  0
    0.9540   -3.8280   -0.0090 N   0  0  0  0  0  0  0  0  0  0  0  0
    0.8400   -1.3850    0.0000 C   0  0  0  0  0  0  0  0  0  0  0  0
    1.4770   -0.1500    0.0000 C   0  0  0  0  0  0  0  0  0  0  0  0
    2.5470   -0.0830    0.0010 H   0  0  0  0  0  0  0  0  0  0  0  0
    0.7400    1.0200   -0.0010 C   0  0  0  0  0  0  0  0  0  0  0  0
    1.2630    1.9620    0.0000 H   0  0  0  0  0  0  0  0  0  0  0  0
   -0.5800    1.0800   -0.0020 N   0  0  0  0  0  0  0  0  0  0  0  0
   -1.1910   -0.0930   -0.0020 C   0  0  0  0  0  0  0  0  0  0  0  0
   -2.2680   -0.0800   -0.0030 H   0  0  0  0  0  0  0  0  0  0  0  0
   -0.5460   -1.3140   -0.0020 C   0  0  0  0  0  0  0  0  0  0  0  0
   -1.1220   -2.2220   -0.0030 H   0  0  0  0  0  0  0  0  0  0  0  0
  1  2  1  0  0  0  0
  1  3  2  0  0  0  0
  1  8  1  0  0  0  0
  3  4  1  0  0  0  0
  3  5  1  0  0  0  0
  5  6  1  0  0  0  0
  5  7  1  0  0  0  0
  7  8  2  0  0  0  0
  7  9  1  0  0  0  0
  9 10  1  0  0  0  0
  9 17  2  0  0  0  0
 10 11  1  0  0  0  0
 10 12  2  0  0  0  0
 12 13  1  0  0  0  0
 12 14  1  0  0  0  0
 14 15  2  0  0  0  0
 15 16  1  0  0  0  0
 15 17  1  0  0  0  0
 17 18  1  0  0  0  0
M  END
>  <Catalog ID>
Z728187792

>  <a_acc>
3

>  <a_don>
2

>  <a_heavy>
11

>  <logP>
0.40400001

>  <logS>
-1.41662

>  <TPSA>
41.57

>  <Weight>
145.16499

$$$$
Z1201620461
  MOE2024           3D

 18 18  0  0  0  0  0  0  0  0999 V2000
    2.9730   -0.0620    0.1150 C   0  0  0  0  0  0  0  0  0  0  0  0
    3.3500   -1.0230    0.4030 H   0  0  0  0  0  0  0  0  0  0  0  0
    3.3190    0.6430    0.8510 H   0  0  0  0  0  0  0  0  0  0  0  0
    3.3950    0.2150   -0.8350 H   0  0  0  0  0  0  0  0  0  0  0  0
    1.4460   -0.0070    0.0300 C   0  0  0  0  0  0  0  0  0  0  0  0
    0.7000   -1.1840   -0.0340 C   0  0  0  0  0  0  0  0  0  0  0  0
    1.3020   -2.3820   -0.0890 O   0  0  0  0  0  0  0  0  0  0  0  0
    2.2660   -2.2770   -0.1470 H   0  0  0  0  0  0  0  0  0  0  0  0
   -0.6810   -1.1650   -0.0550 C   0  0  0  0  0  0  0  0  0  0  0  0
   -1.2260   -2.0890   -0.0970 H   0  0  0  0  0  0  0  0  0  0  0  0
   -1.3410    0.0450   -0.0220 C   0  0  0  0  0  0  0  0  0  0  0  0
   -2.4150    0.0800   -0.0310 H   0  0  0  0  0  0  0  0  0  0  0  0
   -0.6120    1.2180    0.0190 C   0  0  0  0  0  0  0  0  0  0  0  0
   -1.1360    2.1590    0.0390 H   0  0  0  0  0  0  0  0  0  0  0  0
    0.7870    1.2380    0.0310 C   0  0  0  0  0  0  0  0  0  0  0  0
    1.4490    2.5480    0.0390 C   0  0  0  0  0  0  0  0  0  0  0  0
    2.6030    2.7130   -0.3970 O   0  5  0  0  0  0  0  0  0  0  0  0
    0.8470    3.5500    0.4680 O   0  0  0  0  0  0  0  0  0  0  0  0
  1  2  1  0  0  0  0
  1  3  1  0  0  0  0
  1  4  1  0  0  0  0
  1  5  1  0  0  0  0
  5  6  1  0  0  0  0
  5 15  2  0  0  0  0
  6  7  1  0  0  0  0
  6  9  2  0  0  0  0
  7  8  1  0  0  0  0
  9 10  1  0  0  0  0
  9 11  1  0  0  0  0
 11 12  1  0  0  0  0
 11 13  2  0  0  0  0
 13 14  1  0  0  0  0
 13 15  1  0  0  0  0
 15 16  1  0  0  0  0
 16 17  1  0  0  0  0
 16 18  2  0  0  0  0
M  CHG  1  17  -1
M  END
>  <Catalog ID>
Z1201620461

>  <a_acc>
1

>  <a_don>
1

>  <a_heavy>
11

>  <logP>
1.6900001

>  <logS>
-1.41325

>  <TPSA>
60.360001

>  <Weight>
151.14099

$$$$
Z1203162487
  MOE2024           3D

 19 20  0  0  0  0  0  0  0  0999 V2000
   -2.7440   -2.6590    0.0090 N   0  0  0  0  0  0  0  0  0  0  0  0
   -3.3360   -1.8200    0.0100 H   0  0  0  0  0  0  0  0  0  0  0  0
   -3.3150   -3.5110    0.0100 H   0  0  0  0  0  0  0  0  0  0  0  0
   -1.4090   -2.5670    0.0070 C   0  0  0  0  0  0  0  0  0  0  0  0
   -0.6900   -3.6970    0.0050 N   0  0  0  0  0  0  0  0  0  0  0  0
    0.6870   -3.7080    0.0020 C   0  0  0  0  0  0  0  0  0  0  0  0
    1.1840   -4.6650    0.0020 H   0  0  0  0  0  0  0  0  0  0  0  0
    1.3730   -2.5410    0.0010 C   0  0  0  0  0  0  0  0  0  0  0  0
    2.4500   -2.5230   -0.0010 H   0  0  0  0  0  0  0  0  0  0  0  0
    0.6870   -1.2960    0.0020 C   0  0  0  0  0  0  0  0  0  0  0  0
    1.3750   -0.0760    0.0010 C   0  0  0  0  0  0  0  0  0  0  0  0
    2.4520   -0.0740   -0.0020 H   0  0  0  0  0  0  0  0  0  0  0  0
    0.6980    1.1170    0.0020 C   0  0  0  0  0  0  0  0  0  0  0  0
    1.2320    2.0530    0.0010 H   0  0  0  0  0  0  0  0  0  0  0  0
   -0.6920    1.1220    0.0050 C   0  0  0  0  0  0  0  0  0  0  0  0
   -1.2130    2.0660    0.0070 H   0  0  0  0  0  0  0  0  0  0  0  0
   -1.3860   -0.0630    0.0070 C   0  0  0  0  0  0  0  0  0  0  0  0
   -2.4600   -0.0230    0.0100 H   0  0  0  0  0  0  0  0  0  0  0  0
   -0.7240   -1.3040    0.0050 C   0  0  0  0  0  0  0  0  0  0  0  0
  1  2  1  0  0  0  0
  1  3  1  0  0  0  0
  1  4  1  0  0  0  0
  4  5  1  0  0  0  0
  4 19  2  0  0  0  0
  5  6  2  0  0  0  0
  6  7  1  0  0  0  0
  6  8  1  0  0  0  0
  8  9  1  0  0  0  0
  8 10  2  0  0  0  0
 10 11  1  0  0  0  0
 10 19  1  0  0  0  0
 11 12  1  0  0  0  0
 11 13  2  0  0  0  0
 13 14  1  0  0  0  0
 13 15  1  0  0  0  0
 15 16  1  0  0  0  0
 15 17  2  0  0  0  0
 17 18  1  0  0  0  0
 17 19  1  0  0  0  0
M  END
>  <Catalog ID>
Z1203162487

>  <a_acc>
1

>  <a_don>
1

>  <a_heavy>
11

>  <logP>
1.627

>  <logS>
-2.0367601

>  <TPSA>
38.91

>  <Weight>
144.177

$$$$
Z178961272
  MOE2024           3D

 20 20  0  0  0  0  0  0  0  0999 V2000
    5.7450   -0.1450   -0.0020 O   0  5  0  0  0  0  0  0  0  0  0  0
    5.2050   -1.2560   -0.0010 C   0  0  0  0  0  0  0  0  0  0  0  0
    5.8470   -2.3080    0.0010 O   0  0  0  0  0  0  0  0  0  0  0  0
    3.6970   -1.3600   -0.0010 C   0  0  0  0  0  0  0  0  0  0  0  0
    3.4210   -1.9180    0.8720 H   0  0  0  0  0  0  0  0  0  0  0  0
    3.4220   -1.9180   -0.8740 H   0  0  0  0  0  0  0  0  0  0  0  0
    2.9870    0.0050   -0.0010 C   0  0  0  0  0  0  0  0  0  0  0  0
    3.3140    0.5550   -0.8670 H   0  0  0  0  0  0  0  0  0  0  0  0
    3.3140    0.5550    0.8650 H   0  0  0  0  0  0  0  0  0  0  0  0
    1.4580   -0.0470   -0.0010 C   0  0  0  0  0  0  0  0  0  0  0  0
    0.7320   -1.2340   -0.0010 C   0  0  0  0  0  0  0  0  0  0  0  0
    1.2320   -2.1860    0.0000 H   0  0  0  0  0  0  0  0  0  0  0  0
   -0.6530   -1.2120   -0.0010 C   0  0  0  0  0  0  0  0  0  0  0  0
   -1.2170   -2.1270   -0.0010 H   0  0  0  0  0  0  0  0  0  0  0  0
   -1.3090    0.0030   -0.0020 C   0  0  0  0  0  0  0  0  0  0  0  0
   -3.0540    0.0350   -0.0020 Cl  0  0  0  0  0  0  0  0  0  0  0  0
   -0.6090    1.1940   -0.0020 C   0  0  0  0  0  0  0  0  0  0  0  0
   -1.1390    2.1280   -0.0030 H   0  0  0  0  0  0  0  0  0  0  0  0
    0.7750    1.1620   -0.0020 C   0  0  0  0  0  0  0  0  0  0  0  0
    1.3290    2.0850   -0.0020 H   0  0  0  0  0  0  0  0  0  0  0  0
  1  2  1  0  0  0  0
  2  3  2  0  0  0  0
  2  4  1  0  0  0  0
  4  5  1  0  0  0  0
  4  6  1  0  0  0  0
  4  7  1  0  0  0  0
  7  8  1  0  0  0  0
  7  9  1  0  0  0  0
  7 10  1  0  0  0  0
 10 11  1  0  0  0  0
 10 19  2  0  0  0  0
 11 12  1  0  0  0  0
 11 13  2  0  0  0  0
 13 14  1  0  0  0  0
 13 15  1  0  0  0  0
 15 16  1  0  0  0  0
 15 17  2  0  0  0  0
 17 18  1  0  0  0  0
 17 19  1  0  0  0  0
 19 20  1  0  0  0  0
M  CHG  1   1  -1
M  END
>  <Catalog ID>
Z178961272

>  <a_acc>
0

>  <a_don>
0

>  <a_heavy>
12

>  <logP>
2.4719999

>  <logS>
-2.2924099

>  <TPSA>
40.130001

>  <Weight>
183.614

$$$$
Z45415617
  MOE2024           3D

 17 17  0  0  0  0  0  0  0  0999 V2000
    3.8800   -0.0390   -0.4830 N   0  0  0  0  0  0  0  0  0  0  0  0
    4.4740   -0.8610   -0.4010 H   0  0  0  0  0  0  0  0  0  0  0  0
    4.4960    0.7640   -0.3720 H   0  0  0  0  0  0  0  0  0  0  0  0
    3.0160   -0.0530    0.9260 S   0  0  0  0  0  0  0  0  0  0  0  0
    3.3730   -1.3210    1.5090 O   0  0  0  0  0  0  0  0  0  0  0  0
    3.4010    1.1880    1.5500 O   0  0  0  0  0  0  0  0  0  0  0  0
    1.2850   -0.0240    0.3860 C   0  0  0  0  0  0  0  0  0  0  0  0
    0.5780   -1.2040    0.1750 C   0  0  0  0  0  0  0  0  0  0  0  0
    1.0500   -2.1570    0.3460 H   0  0  0  0  0  0  0  0  0  0  0  0
   -0.7360   -1.1720   -0.2570 C   0  0  0  0  0  0  0  0  0  0  0  0
   -1.5870   -2.6730   -0.5080 Cl  0  0  0  0  0  0  0  0  0  0  0  0
   -1.3870    0.0210   -0.4930 C   0  0  0  0  0  0  0  0  0  0  0  0
   -2.4080    0.0380   -0.8290 H   0  0  0  0  0  0  0  0  0  0  0  0
   -0.6870    1.1910   -0.2860 C   0  0  0  0  0  0  0  0  0  0  0  0
   -1.4740    2.7200   -0.5760 Cl  0  0  0  0  0  0  0  0  0  0  0  0
    0.6280    1.1790    0.1450 C   0  0  0  0  0  0  0  0  0  0  0  0
    1.1410    2.1150    0.2930 H   0  0  0  0  0  0  0  0  0  0  0  0
  1  2  1  0  0  0  0
  1  3  1  0  0  0  0
  1  4  1  0  0  0  0
  4  5  2  0  0  0  0
  4  6  2  0  0  0  0
  4  7  1  0  0  0  0
  7  8  1  0  0  0  0
  7 16  2  0  0  0  0
  8  9  1  0  0  0  0
  8 10  2  0  0  0  0
 10 11  1  0  0  0  0
 10 12  1  0  0  0  0
 12 13  1  0  0  0  0
 12 14  2  0  0  0  0
 14 15  1  0  0  0  0
 14 16  1  0  0  0  0
 16 17  1  0  0  0  0
M  END
>  <Catalog ID>
Z45415617

>  <a_acc>
2

>  <a_don>
1

>  <a_heavy>
12

>  <logP>
1.6289999

>  <logS>
-3.08007

>  <TPSA>
60.16

>  <Weight>
226.08299

$$$$
Z1269159102
  MOE2024           3D

 17 17  0  0  0  0  0  0  0  0999 V2000
    4.1450   -1.5560    1.3110 O   0  5  0  0  0  0  0  0  0  0  0  0
    3.6780   -1.4420    0.1730 C   0  0  0  0  0  0  0  0  0  0  0  0
    3.7160   -2.3570   -0.6580 O   0  0  0  0  0  0  0  0  0  0  0  0
    3.0780   -0.1140   -0.2380 C   0  0  0  0  0  0  0  0  0  0  0  0
    3.3850    0.0790   -1.2470 H   0  0  0  0  0  0  0  0  0  0  0  0
    3.5090    0.6420    0.3890 H   0  0  0  0  0  0  0  0  0  0  0  0
    1.5530   -0.0700   -0.1560 C   0  0  0  0  0  0  0  0  0  0  0  0
    0.7920   -0.9630   -0.8980 C   0  0  0  0  0  0  0  0  0  0  0  0
    1.2780   -1.6980   -1.5190 H   0  0  0  0  0  0  0  0  0  0  0  0
   -0.5890   -0.9170   -0.8300 C   0  0  0  0  0  0  0  0  0  0  0  0
   -1.5380   -2.0380   -1.7740 Cl  0  0  0  0  0  0  0  0  0  0  0  0
   -1.2390    0.0040   -0.0310 C   0  0  0  0  0  0  0  0  0  0  0  0
   -2.3110    0.0320    0.0170 H   0  0  0  0  0  0  0  0  0  0  0  0
   -0.4720    0.8840    0.7070 C   0  0  0  0  0  0  0  0  0  0  0  0
   -1.2670    2.0580    1.7250 Cl  0  0  0  0  0  0  0  0  0  0  0  0
    0.9110    0.8570    0.6530 C   0  0  0  0  0  0  0  0  0  0  0  0
    1.4800    1.5520    1.2440 H   0  0  0  0  0  0  0  0  0  0  0  0
  1  2  1  0  0  0  0
  2  3  2  0  0  0  0
  2  4  1  0  0  0  0
  4  5  1  0  0  0  0
  4  6  1  0  0  0  0
  4  7  1  0  0  0  0
  7  8  1  0  0  0  0
  7 16  2  0  0  0  0
  8  9  1  0  0  0  0
  8 10  2  0  0  0  0
 10 11  1  0  0  0  0
 10 12  1  0  0  0  0
 12 13  1  0  0  0  0
 12 14  2  0  0  0  0
 14 15  1  0  0  0  0
 14 16  1  0  0  0  0
 16 17  1  0  0  0  0
M  CHG  1   1  -1
M  END
>  <Catalog ID>
Z1269159102

>  <a_acc>
0

>  <a_don>
0

>  <a_heavy>
12

>  <logP>
3.0869999

>  <logS>
-3.1447799

>  <TPSA>
40.130001

>  <Weight>
204.032

$$$$
Z104477464
  MOE2024           3D

 24 25  0  0  0  0  0  0  0  0999 V2000
    1.2590    0.2810    0.2440 C   0  0  0  0  0  0  0  0  0  0  0  0
    2.3310    0.3770    0.2740 H   0  0  0  0  0  0  0  0  0  0  0  0
    0.6600   -0.5030   -0.7270 C   0  0  0  0  0  0  0  0  0  0  0  0
    1.2670   -1.0170   -1.4510 H   0  0  0  0  0  0  0  0  0  0  0  0
   -0.7180   -0.6250   -0.7650 C   0  0  0  0  0  0  0  0  0  0  0  0
   -1.1690   -1.2380   -1.5260 H   0  0  0  0  0  0  0  0  0  0  0  0
   -1.5080    0.0350    0.1650 C   0  0  0  0  0  0  0  0  0  0  0  0
   -0.9000    0.8190    1.1340 C   0  0  0  0  0  0  0  0  0  0  0  0
   -1.5010    1.3410    1.8590 H   0  0  0  0  0  0  0  0  0  0  0  0
    0.4780    0.9430    1.1740 C   0  0  0  0  0  0  0  0  0  0  0  0
    0.9410    1.5540    1.9290 H   0  0  0  0  0  0  0  0  0  0  0  0
   -3.0250   -0.0980    0.1290 C   0  0  0  0  0  0  0  0  0  0  0  0
   -3.3460   -0.5910    1.0280 H   0  0  0  0  0  0  0  0  0  0  0  0
   -3.3230   -0.7120   -0.7020 H   0  0  0  0  0  0  0  0  0  0  0  0
   -3.7160    1.2550    0.0040 C   0  0  0  0  0  0  0  0  0  0  0  0
   -3.3010    2.2070   -0.9070 C   0  0  0  0  0  0  0  0  0  0  0  0
   -2.4640    2.0160   -1.5540 H   0  0  0  0  0  0  0  0  0  0  0  0
   -3.9650    3.4200   -0.9830 C   0  0  0  0  0  0  0  0  0  0  0  0
   -3.6230    4.1490   -1.6980 H   0  0  0  0  0  0  0  0  0  0  0  0
   -5.0010    3.7610   -0.2340 N   0  0  0  0  0  0  0  0  0  0  0  0
   -5.3900    2.8420    0.6350 C   0  0  0  0  0  0  0  0  0  0  0  0
   -6.2310    3.0930    1.2590 H   0  0  0  0  0  0  0  0  0  0  0  0
   -4.7960    1.6010    0.7920 C   0  0  0  0  0  0  0  0  0  0  0  0
   -5.1830    0.9190    1.5260 H   0  0  0  0  0  0  0  0  0  0  0  0
  1  2  1  0  0  0  0
  1  3  1  0  0  0  0
  1 10  2  0  0  0  0
  3  4  1  0  0  0  0
  3  5  2  0  0  0  0
  5  6  1  0  0  0  0
  5  7  1  0  0  0  0
  7  8  2  0  0  0  0
  7 12  1  0  0  0  0
  8  9  1  0  0  0  0
  8 10  1  0  0  0  0
 10 11  1  0  0  0  0
 12 13  1  0  0  0  0
 12 14  1  0  0  0  0
 12 15  1  0  0  0  0
 15 16  1  0  0  0  0
 15 23  2  0  0  0  0
 16 17  1  0  0  0  0
 16 18  2  0  0  0  0
 18 19  1  0  0  0  0
 18 20  1  0  0  0  0
 20 21  2  0  0  0  0
 21 22  1  0  0  0  0
 21 23  1  0  0  0  0
 23 24  1  0  0  0  0
M  END
>  <Catalog ID>
Z104477464

>  <a_acc>
1

>  <a_don>
0

>  <a_heavy>
13

>  <logP>
2.8929

>  <logS>
-2.24312

>  <TPSA>
12.89

>  <Weight>
169.22699

$$$$
Z56922105
  MOE2024           3D

 17 17  0  0  0  0  0  0  0  0999 V2000
    3.5190    1.0830   -0.0340 O   0  5  0  0  0  0  0  0  0  0  0  0
    2.8870    0.0120    0.0040 C   0  0  0  0  0  0  0  0  0  0  0  0
    3.5230   -1.0570    0.0370 O   0  0  0  0  0  0  0  0  0  0  0  0
    1.4280    0.0090    0.0100 C   0  0  0  0  0  0  0  0  0  0  0  0
    0.7000   -1.1800    0.0500 C   0  0  0  0  0  0  0  0  0  0  0  0
    1.2450   -2.1100    0.0780 H   0  0  0  0  0  0  0  0  0  0  0  0
   -0.6830   -1.1870    0.0560 C   0  0  0  0  0  0  0  0  0  0  0  0
   -1.1920   -2.1350    0.0900 H   0  0  0  0  0  0  0  0  0  0  0  0
   -1.4000    0.0040    0.0180 C   0  0  0  0  0  0  0  0  0  0  0  0
   -0.6870    1.1980   -0.0190 C   0  0  0  0  0  0  0  0  0  0  0  0
   -1.2000    2.1440   -0.0440 H   0  0  0  0  0  0  0  0  0  0  0  0
    0.6950    1.1950   -0.0240 C   0  0  0  0  0  0  0  0  0  0  0  0
    1.2370    2.1270   -0.0550 H   0  0  0  0  0  0  0  0  0  0  0  0
   -2.9330   -0.0020    0.0290 C   0  0  0  0  0  0  0  0  0  0  0  0
   -3.4250    0.0000    1.2620 F   0  0  0  0  0  0  0  0  0  0  0  0
   -3.4620    1.0550   -0.5810 F   0  0  0  0  0  0  0  0  0  0  0  0
   -3.4520   -1.0670   -0.5730 F   0  0  0  0  0  0  0  0  0  0  0  0
  1  2  1  0  0  0  0
  2  3  2  0  0  0  0
  2  4  1  0  0  0  0
  4  5  1  0  0  0  0
  4 12  2  0  0  0  0
  5  6  1  0  0  0  0
  5  7  2  0  0  0  0
  7  8  1  0  0  0  0
  7  9  1  0  0  0  0
  9 10  2  0  0  0  0
  9 14  1  0  0  0  0
 10 11  1  0  0  0  0
 10 12  1  0  0  0  0
 12 13  1  0  0  0  0
 14 15  1  0  0  0  0
 14 16  1  0  0  0  0
 14 17  1  0  0  0  0
M  CHG  1   1  -1
M  END
>  <Catalog ID>
Z56922105

>  <a_acc>
0

>  <a_don>
0

>  <a_heavy>
13

>  <logP>
2.6387601

>  <logS>
-2.6712799

>  <TPSA>
40.130001

>  <Weight>
189.112

$$$$
Z104478452
  MOE2024           3D

 22 22  0  0  0  0  0  0  0  0999 V2000
    3.5290   -1.1270   -0.0050 C   0  0  0  0  0  0  0  0  0  0  0  0
    4.5640   -0.8410   -0.0040 H   0  0  0  0  0  0  0  0  0  0  0  0
    3.3030   -1.6870   -0.8950 H   0  0  0  0  0  0  0  0  0  0  0  0
    3.3050   -1.6970    0.8790 H   0  0  0  0  0  0  0  0  0  0  0  0
    2.7520    0.0480    0.0030 O   0  0  0  0  0  0  0  0  0  0  0  0
    1.3890    0.0070    0.0010 C   0  0  0  0  0  0  0  0  0  0  0  0
    0.6770   -1.1890   -0.0020 C   0  0  0  0  0  0  0  0  0  0  0  0
    1.1740   -2.1380   -0.0030 H   0  0  0  0  0  0  0  0  0  0  0  0
   -0.7060   -1.1810   -0.0030 C   0  0  0  0  0  0  0  0  0  0  0  0
   -1.2500   -2.1110   -0.0060 H   0  0  0  0  0  0  0  0  0  0  0  0
   -1.4340    0.0090   -0.0020 C   0  0  0  0  0  0  0  0  0  0  0  0
   -0.7040    1.2000    0.0020 C   0  0  0  0  0  0  0  0  0  0  0  0
   -1.2740    2.1100    0.0030 H   0  0  0  0  0  0  0  0  0  0  0  0
    0.6870    1.2160    0.0030 C   0  0  0  0  0  0  0  0  0  0  0  0
    1.4070    2.3780    0.0070 O   0  0  0  0  0  0  0  0  0  0  0  0
    0.7600    3.6310    0.0120 C   0  0  0  0  0  0  0  0  0  0  0  0
    1.5150    4.3950    0.0150 H   0  0  0  0  0  0  0  0  0  0  0  0
    0.1550    3.7060    0.8980 H   0  0  0  0  0  0  0  0  0  0  0  0
    0.1560    3.7130   -0.8740 H   0  0  0  0  0  0  0  0  0  0  0  0
   -2.8920    0.0110   -0.0030 C   0  0  0  0  0  0  0  0  0  0  0  0
   -3.5290   -1.0580   -0.0060 O   0  5  0  0  0  0  0  0  0  0  0  0
   -3.5250    1.0830   -0.0020 O   0  0  0  0  0  0  0  0  0  0  0  0
  1  2  1  0  0  0  0
  1  3  1  0  0  0  0
  1  4  1  0  0  0  0
  1  5  1  0  0  0  0
  5  6  1  0  0  0  0
  6  7  1  0  0  0  0
  6 14  2  0  0  0  0
  7  8  1  0  0  0  0
  7  9  2  0  0  0  0
  9 10  1  0  0  0  0
  9 11  1  0  0  0  0
 11 12  2  0  0  0  0
 11 20  1  0  0  0  0
 12 13  1  0  0  0  0
 12 14  1  0  0  0  0
 14 15  1  0  0  0  0
 15 16  1  0  0  0  0
 16 17  1  0  0  0  0
 16 18  1  0  0  0  0
 16 19  1  0  0  0  0
 20 21  1  0  0  0  0
 20 22  2  0  0  0  0
M  CHG  1  21  -1
M  END
>  <Catalog ID>
Z104478452

>  <a_acc>
2

>  <a_don>
0

>  <a_heavy>
13

>  <logP>
1.40274

>  <logS>
-1.71549

>  <TPSA>
58.59

>  <Weight>
181.16699

$$$$
Z381356458
  MOE2024           3D

 24 25  0  0  0  0  0  0  0  0999 V2000
   -0.9920   -6.0660   -0.8100 N   0  0  0  0  0  0  0  0  0  0  0  0
   -1.4270   -6.9840   -0.9020 H   0  0  0  0  0  0  0  0  0  0  0  0
   -0.1530   -5.9560   -1.3870 H   0  0  0  0  0  0  0  0  0  0  0  0
   -1.4460   -5.0820   -0.0660 C   0  0  0  0  0  0  0  0  0  0  0  0
   -2.5490   -5.2690    0.6230 N   0  3  0  0  0  0  0  0  0  0  0  0
   -2.9240   -4.5410    1.2380 H   0  0  0  0  0  0  0  0  0  0  0  0
   -3.1000   -6.1270    0.6330 H   0  0  0  0  0  0  0  0  0  0  0  0
   -0.7470   -3.8200   -0.0080 C   0  0  0  0  0  0  0  0  0  0  0  0
    0.6520   -3.7850    0.1840 C   0  0  0  0  0  0  0  0  0  0  0  0
    1.1980   -4.7060    0.3010 H   0  0  0  0  0  0  0  0  0  0  0  0
    1.3300   -2.6000    0.2380 C   0  0  0  0  0  0  0  0  0  0  0  0
    2.3960   -2.5850    0.3870 H   0  0  0  0  0  0  0  0  0  0  0  0
    0.6650   -1.3670    0.1070 C   0  0  0  0  0  0  0  0  0  0  0  0
    1.3380   -0.1310    0.1580 C   0  0  0  0  0  0  0  0  0  0  0  0
    2.4030   -0.1290    0.3040 H   0  0  0  0  0  0  0  0  0  0  0  0
    0.6610    1.0500    0.0270 C   0  0  0  0  0  0  0  0  0  0  0  0
    1.1790    1.9920    0.0670 H   0  0  0  0  0  0  0  0  0  0  0  0
   -0.7250    1.0440   -0.1630 C   0  0  0  0  0  0  0  0  0  0  0  0
   -1.2410    1.9840   -0.2650 H   0  0  0  0  0  0  0  0  0  0  0  0
   -1.4030   -0.1420   -0.2170 C   0  0  0  0  0  0  0  0  0  0  0  0
   -2.4680   -0.1430   -0.3640 H   0  0  0  0  0  0  0  0  0  0  0  0
   -0.7320   -1.3760   -0.0830 C   0  0  0  0  0  0  0  0  0  0  0  0
   -1.4020   -2.6120   -0.1370 C   0  0  0  0  0  0  0  0  0  0  0  0
   -2.4650   -2.5790   -0.2970 H   0  0  0  0  0  0  0  0  0  0  0  0
  1  2  1  0  0  0  0
  1  3  1  0  0  0  0
  1  4  1  0  0  0  0
  4  5  2  0  0  0  0
  4  8  1  0  0  0  0
  5  6  1  0  0  0  0
  5  7  1  0  0  0  0
  8  9  1  0  0  0  0
  8 23  2  0  0  0  0
  9 10  1  0  0  0  0
  9 11  2  0  0  0  0
 11 12  1  0  0  0  0
 11 13  1  0  0  0  0
 13 14  1  0  0  0  0
 13 22  2  0  0  0  0
 14 15  1  0  0  0  0
 14 16  2  0  0  0  0
 16 17  1  0  0  0  0
 16 18  1  0  0  0  0
 18 19  1  0  0  0  0
 18 20  2  0  0  0  0
 20 21  1  0  0  0  0
 20 22  1  0  0  0  0
 22 23  1  0  0  0  0
 23 24  1  0  0  0  0
M  CHG  1   5   1
M  END
>  <Catalog ID>
Z381356458

>  <a_acc>
0

>  <a_don>
0

>  <a_heavy>
13

>  <logP>
2.339

>  <logS>
-3.6912501

>  <TPSA>
51.610001

>  <Weight>
171.22299

$$$$
Z397587554
  MOE2024           3D

 24 25  0  0  0  0  0  0  0  0999 V2000
   -1.5300   -4.9150   -0.1270 C   0  0  0  0  0  0  0  0  0  0  0  0
   -0.9050   -5.7770   -0.2710 H   0  0  0  0  0  0  0  0  0  0  0  0
   -2.2360   -4.8590   -0.9350 H   0  0  0  0  0  0  0  0  0  0  0  0
   -2.0690   -5.0240    0.7950 H   0  0  0  0  0  0  0  0  0  0  0  0
   -0.7120   -3.6410   -0.0840 C   0  0  0  0  0  0  0  0  0  0  0  0
    0.6830   -3.7110   -0.1990 C   0  0  0  0  0  0  0  0  0  0  0  0
    1.1350   -4.6790   -0.3230 H   0  0  0  0  0  0  0  0  0  0  0  0
    1.4460   -2.5770   -0.1570 C   0  0  0  0  0  0  0  0  0  0  0  0
    2.9690   -2.6300   -0.2650 C   0  0  0  0  0  0  0  0  0  0  0  0
    3.4290   -1.8530    0.3190 H   0  0  0  0  0  0  0  0  0  0  0  0
    3.2830   -2.5420   -1.2910 H   0  0  0  0  0  0  0  0  0  0  0  0
    3.4400   -3.8330    0.2320 O   0  0  0  0  0  0  0  0  0  0  0  0
    3.0610   -3.9790    1.1200 H   0  0  0  0  0  0  0  0  0  0  0  0
    0.7640   -1.3430   -0.0260 C   0  0  0  0  0  0  0  0  0  0  0  0
    1.3930   -0.0750   -0.0080 C   0  0  0  0  0  0  0  0  0  0  0  0
    2.4590   -0.0050   -0.1120 H   0  0  0  0  0  0  0  0  0  0  0  0
    0.6750    1.0820    0.1320 C   0  0  0  0  0  0  0  0  0  0  0  0
    1.1670    2.0400    0.1460 H   0  0  0  0  0  0  0  0  0  0  0  0
   -0.7150    1.0340    0.2570 C   0  0  0  0  0  0  0  0  0  0  0  0
   -1.2690    1.9500    0.3690 H   0  0  0  0  0  0  0  0  0  0  0  0
   -1.3520   -0.1760    0.2340 C   0  0  0  0  0  0  0  0  0  0  0  0
   -2.4210   -0.2390    0.3240 H   0  0  0  0  0  0  0  0  0  0  0  0
   -0.6470   -1.3820    0.0890 C   0  0  0  0  0  0  0  0  0  0  0  0
   -1.3620   -2.5330    0.0610 N   0  0  0  0  0  0  0  0  0  0  0  0
  1  2  1  0  0  0  0
  1  3  1  0  0  0  0
  1  4  1  0  0  0  0
  1  5  1  0  0  0  0
  5  6  1  0  0  0  0
  5 24  2  0  0  0  0
  6  7  1  0  0  0  0
  6  8  2  0  0  0  0
  8  9  1  0  0  0  0
  8 14  1  0  0  0  0
  9 10  1  0  0  0  0
  9 11  1  0  0  0  0
  9 12  1  0  0  0  0
 12 13  1  0  0  0  0
 14 15  1  0  0  0  0
 14 23  2  0  0  0  0
 15 16  1  0  0  0  0
 15 17  2  0  0  0  0
 17 18  1  0  0  0  0
 17 19  1  0  0  0  0
 19 20  1  0  0  0  0
 19 21  2  0  0  0  0
 21 22  1  0  0  0  0
 21 23  1  0  0  0  0
 23 24  1  0  0  0  0
M  END
>  <Catalog ID>
Z397587554

>  <a_acc>
2

>  <a_don>
1

>  <a_heavy>
13

>  <logP>
1.88

>  <logS>
-2.0578301

>  <TPSA>
33.119999

>  <Weight>
173.215

$$$$
Z104480436
  MOE2024           3D

 21 23  0  0  0  0  0  0  0  0999 V2000
    0.8950   -6.9970    0.0060 C   0  0  0  0  0  0  0  0  0  0  0  0
    1.6060   -7.8050    0.0080 H   0  0  0  0  0  0  0  0  0  0  0  0
    1.1220   -5.7480    0.0060 N   0  0  0  0  0  0  0  0  0  0  0  0
   -0.0520   -4.9860    0.0030 C   0  0  0  0  0  0  0  0  0  0  0  0
   -1.1840   -5.7270    0.0000 C   0  0  0  0  0  0  0  0  0  0  0  0
   -2.2230   -5.4620   -0.0040 H   0  0  0  0  0  0  0  0  0  0  0  0
   -0.7970   -7.4210    0.0010 S   0  0  0  0  0  0  0  0  0  0  0  0
    0.0180   -3.5340    0.0040 C   0  0  0  0  0  0  0  0  0  0  0  0
    1.0960   -2.8010   -0.0050 N   0  0  0  0  0  0  0  0  0  0  0  0
    0.6580   -1.5170   -0.0010 C   0  0  0  0  0  0  0  0  0  0  0  0
    1.3880   -0.3290   -0.0060 C   0  0  0  0  0  0  0  0  0  0  0  0
    2.4600   -0.3870   -0.0150 H   0  0  0  0  0  0  0  0  0  0  0  0
    0.7180    0.8750    0.0000 C   0  0  0  0  0  0  0  0  0  0  0  0
    1.2660    1.8010   -0.0040 H   0  0  0  0  0  0  0  0  0  0  0  0
   -0.6830    0.9080    0.0120 C   0  0  0  0  0  0  0  0  0  0  0  0
   -1.1830    1.8610    0.0160 H   0  0  0  0  0  0  0  0  0  0  0  0
   -1.4130   -0.2600    0.0170 C   0  0  0  0  0  0  0  0  0  0  0  0
   -2.4880   -0.2440    0.0270 H   0  0  0  0  0  0  0  0  0  0  0  0
   -0.7210   -1.4730    0.0110 C   0  0  0  0  0  0  0  0  0  0  0  0
   -1.1110   -2.7680    0.0140 N   0  0  0  0  0  0  0  0  0  0  0  0
   -2.0740   -3.1070    0.0230 H   0  0  0  0  0  0  0  0  0  0  0  0
  1  2  1  0  0  0  0
  1  3  2  0  0  0  0
  1  7  1  0  0  0  0
  3  4  1  0  0  0  0
  4  5  2  0  0  0  0
  4  8  1  0  0  0  0
  5  6  1  0  0  0  0
  5  7  1  0  0  0  0
  8  9  2  0  0  0  0
  8 20  1  0  0  0  0
  9 10  1  0  0  0  0
 10 11  1  0  0  0  0
 10 19  2  0  0  0  0
 11 12  1  0  0  0  0
 11 13  2  0  0  0  0
 13 14  1  0  0  0  0
 13 15  1  0  0  0  0
 15 16  1  0  0  0  0
 15 17  2  0  0  0  0
 17 18  1  0  0  0  0
 17 19  1  0  0  0  0
 19 20  1  0  0  0  0
 20 21  1  0  0  0  0
M  END
>  <Catalog ID>
Z104480436

>  <a_acc>
3

>  <a_don>
2

>  <a_heavy>
14

>  <logP>
2.0850599

>  <logS>
-3.32867

>  <TPSA>
41.57

>  <Weight>
201.25301

$$$$
Z228589126
  MOE2024           3D

 29 29  0  0  0  0  0  0  0  0999 V2000
    7.1180   -1.4310   -1.8300 O   0  5  0  0  0  0  0  0  0  0  0  0
    7.3680   -2.0020   -0.7540 C   0  0  0  0  0  0  0  0  0  0  0  0
    8.5230   -2.2180   -0.3700 O   0  0  0  0  0  0  0  0  0  0  0  0
    6.1920   -2.4610    0.1120 C   0  0  0  0  0  0  0  0  0  0  0  0
    6.2890   -2.0070    1.0800 H   0  0  0  0  0  0  0  0  0  0  0  0
    6.2520   -3.5270    0.2210 H   0  0  0  0  0  0  0  0  0  0  0  0
    4.8710   -2.0930   -0.4970 N   0  0  0  0  0  0  0  0  0  0  0  0
    5.0630   -1.6670   -1.4130 H   0  0  0  0  0  0  0  0  0  0  0  0
    3.7750   -1.7000    0.1780 C   0  0  0  0  0  0  0  0  0  0  0  0
    3.6390   -1.9240    1.3660 O   0  0  0  0  0  0  0  0  0  0  0  0
    2.8310   -1.0410   -0.5260 N   0  0  0  0  0  0  0  0  0  0  0  0
    3.0180   -0.8710   -1.5090 H   0  0  0  0  0  0  0  0  0  0  0  0
    1.5860   -0.4860    0.0180 C   0  0  0  0  0  0  0  0  0  0  0  0
    1.5310   -0.6870    1.0760 H   0  0  0  0  0  0  0  0  0  0  0  0
    0.3990   -1.1570   -0.6810 C   0  0  0  0  0  0  0  0  0  0  0  0
    0.4020   -2.2070   -0.4480 H   0  0  0  0  0  0  0  0  0  0  0  0
    0.4970   -1.0430   -1.7460 H   0  0  0  0  0  0  0  0  0  0  0  0
   -0.9330   -0.5390   -0.2300 C   0  0  0  0  0  0  0  0  0  0  0  0
   -1.0850   -0.7470    0.8160 H   0  0  0  0  0  0  0  0  0  0  0  0
   -1.7440   -0.9890   -0.7770 H   0  0  0  0  0  0  0  0  0  0  0  0
   -0.9420    0.9810   -0.4500 C   0  0  0  0  0  0  0  0  0  0  0  0
   -1.8610    1.3940   -0.0710 H   0  0  0  0  0  0  0  0  0  0  0  0
   -0.9010    1.1870   -1.5070 H   0  0  0  0  0  0  0  0  0  0  0  0
    0.2500    1.6530    0.2450 C   0  0  0  0  0  0  0  0  0  0  0  0
    0.1490    1.5410    1.3110 H   0  0  0  0  0  0  0  0  0  0  0  0
    0.2510    2.7060    0.0230 H   0  0  0  0  0  0  0  0  0  0  0  0
    1.5790    1.0300   -0.2050 C   0  0  0  0  0  0  0  0  0  0  0  0
    1.7300    1.2400   -1.2490 H   0  0  0  0  0  0  0  0  0  0  0  0
    2.3880    1.4700    0.3520 H   0  0  0  0  0  0  0  0  0  0  0  0
  1  2  1  0  0  0  0
  2  3  2  0  0  0  0
  2  4  1  0  0  0  0
  4  5  1  0  0  0  0
  4  6  1  0  0  0  0
  4  7  1  0  0  0  0
  7  8  1  0  0  0  0
  7  9  1  0  0  0  0
  9 10  2  0  0  0  0
  9 11  1  0  0  0  0
 11 12  1  0  0  0  0
 11 13  1  0  0  0  0
 13 14  1  0  0  0  0
 13 15  1  0  0  0  0
 13 27  1  0  0  0  0
 15 16  1  0  0  0  0
 15 17  1  0  0  0  0
 15 18  1  0  0  0  0
 18 19  1  0  0  0  0
 18 20  1  0  0  0  0
 18 21  1  0  0  0  0
 21 22  1  0  0  0  0
 21 23  1  0  0  0  0
 21 24  1  0  0  0  0
 24 25  1  0  0  0  0
 24 26  1  0  0  0  0
 24 27  1  0  0  0  0
 27 28  1  0  0  0  0
 27 29  1  0  0  0  0
M  CHG  1   1  -1
M  END
>  <Catalog ID>
Z228589126

>  <a_acc>
1

>  <a_don>
2

>  <a_heavy>
14

>  <logP>
0.792

>  <logS>
-1.33176

>  <TPSA>
81.260002

>  <Weight>
199.23

$$$$
Z102767654
  MOE2024           3D

 36 37  0  0  0  0  0  0  0  0999 V2000
    4.8150   -1.2210   -0.4630 C   0  0  0  0  0  0  0  0  0  0  0  0
    5.0840   -2.0830   -1.0520 H   0  0  0  0  0  0  0  0  0  0  0  0
    5.2190   -1.3450    0.5290 H   0  0  0  0  0  0  0  0  0  0  0  0
    5.2610   -0.3470   -0.9110 H   0  0  0  0  0  0  0  0  0  0  0  0
    3.3320   -1.0780   -0.4060 N   0  3  0  0  0  0  0  0  0  0  0  0
    2.8880   -1.9190   -0.0150 H   0  0  0  0  0  0  0  0  0  0  0  0
    2.9290   -0.9760   -1.3470 H   0  0  0  0  0  0  0  0  0  0  0  0
    2.8700    0.0760    0.3940 C   0  0  0  0  0  0  0  0  0  0  0  0
    3.2510    1.0000   -0.0120 H   0  0  0  0  0  0  0  0  0  0  0  0
    3.1900   -0.0180    1.4190 H   0  0  0  0  0  0  0  0  0  0  0  0
    1.3630    0.0600    0.3160 C   0  0  0  0  0  0  0  0  0  0  0  0
    0.6190   -0.6390    1.2570 C   0  0  0  0  0  0  0  0  0  0  0  0
    1.0940   -1.1610    2.0700 H   0  0  0  0  0  0  0  0  0  0  0  0
   -0.7600   -0.6710    1.1670 C   0  0  0  0  0  0  0  0  0  0  0  0
   -1.3380   -1.2050    1.8980 H   0  0  0  0  0  0  0  0  0  0  0  0
   -1.4220   -0.0100    0.1390 C   0  0  0  0  0  0  0  0  0  0  0  0
   -0.6700    0.6940   -0.7890 C   0  0  0  0  0  0  0  0  0  0  0  0
   -1.1900    1.2080   -1.5780 H   0  0  0  0  0  0  0  0  0  0  0  0
    0.7090    0.7340   -0.7060 C   0  0  0  0  0  0  0  0  0  0  0  0
    1.2530    1.2960   -1.4470 H   0  0  0  0  0  0  0  0  0  0  0  0
   -2.8050   -0.0250    0.0240 N   0  0  0  0  0  0  0  0  0  0  0  0
   -3.5400    1.1230    0.6150 C   0  0  0  0  0  0  0  0  0  0  0  0
   -2.9680    2.0260    0.4840 H   0  0  0  0  0  0  0  0  0  0  0  0
   -3.6740    0.9540    1.6690 H   0  0  0  0  0  0  0  0  0  0  0  0
   -4.9010    1.2650   -0.0730 C   0  0  0  0  0  0  0  0  0  0  0  0
   -4.7370    1.5360   -1.1010 H   0  0  0  0  0  0  0  0  0  0  0  0
   -5.4540    2.0610    0.3930 H   0  0  0  0  0  0  0  0  0  0  0  0
   -5.7100   -0.0390   -0.0050 C   0  0  0  0  0  0  0  0  0  0  0  0
   -6.6200    0.0670   -0.5690 H   0  0  0  0  0  0  0  0  0  0  0  0
   -5.9720   -0.2440    1.0190 H   0  0  0  0  0  0  0  0  0  0  0  0
   -4.8840   -1.2080   -0.5640 C   0  0  0  0  0  0  0  0  0  0  0  0
   -4.7180   -1.0620   -1.6170 H   0  0  0  0  0  0  0  0  0  0  0  0
   -5.4260   -2.1280   -0.4400 H   0  0  0  0  0  0  0  0  0  0  0  0
   -3.5240   -1.3220    0.1300 C   0  0  0  0  0  0  0  0  0  0  0  0
   -3.6630   -1.5720    1.1680 H   0  0  0  0  0  0  0  0  0  0  0  0
   -2.9390   -2.0970   -0.3360 H   0  0  0  0  0  0  0  0  0  0  0  0
  1  2  1  0  0  0  0
  1  3  1  0  0  0  0
  1  4  1  0  0  0  0
  1  5  1  0  0  0  0
  5  6  1  0  0  0  0
  5  7  1  0  0  0  0
  5  8  1  0  0  0  0
  8  9  1  0  0  0  0
  8 10  1  0  0  0  0
  8 11  1  0  0  0  0
 11 12  1  0  0  0  0
 11 19  2  0  0  0  0
 12 13  1  0  0  0  0
 12 14  2  0  0  0  0
 14 15  1  0  0  0  0
 14 16  1  0  0  0  0
 16 17  2  0  0  0  0
 16 21  1  0  0  0  0
 17 18  1  0  0  0  0
 17 19  1  0  0  0  0
 19 20  1  0  0  0  0
 21 22  1  0  0  0  0
 21 34  1  0  0  0  0
 22 23  1  0  0  0  0
 22 24  1  0  0  0  0
 22 25  1  0  0  0  0
 25 26  1  0  0  0  0
 25 27  1  0  0  0  0
 25 28  1  0  0  0  0
 28 29  1  0  0  0  0
 28 30  1  0  0  0  0
 28 31  1  0  0  0  0
 31 32  1  0  0  0  0
 31 33  1  0  0  0  0
 31 34  1  0  0  0  0
 34 35  1  0  0  0  0
 34 36  1  0  0  0  0
M  CHG  1   5   1
M  END
>  <Catalog ID>
Z102767654

>  <a_acc>
0

>  <a_don>
0

>  <a_heavy>
15

>  <logP>
2.576

>  <logS>
-1.78255

>  <TPSA>
19.85

>  <Weight>
205.325

$$$$
Z363993550
  MOE2024           3D

 23 24  0  0  0  0  0  0  0  0999 V2000
    3.4400    0.9820    0.8950 O   0  5  0  0  0  0  0  0  0  0  0  0
    2.7990   -0.0190    0.5310 C   0  0  0  0  0  0  0  0  0  0  0  0
    3.3800   -1.1160    0.4660 O   0  0  0  0  0  0  0  0  0  0  0  0
    1.3970    0.0940    0.1830 C   0  0  0  0  0  0  0  0  0  0  0  0
    0.6920   -1.0240   -0.2490 C   0  0  0  0  0  0  0  0  0  0  0  0
    1.2260   -1.9590   -0.3060 H   0  0  0  0  0  0  0  0  0  0  0  0
   -0.5870   -1.0400   -0.5990 N   0  0  0  0  0  0  0  0  0  0  0  0
   -1.2030    0.1270   -0.5170 C   0  0  0  0  0  0  0  0  0  0  0  0
   -2.2360    0.1370   -0.8130 H   0  0  0  0  0  0  0  0  0  0  0  0
   -0.6360    1.3290   -0.0970 C   0  0  0  0  0  0  0  0  0  0  0  0
    0.7020    1.2930    0.2600 C   0  0  0  0  0  0  0  0  0  0  0  0
    1.2160    2.1740    0.6040 H   0  0  0  0  0  0  0  0  0  0  0  0
   -1.4080    2.5560   -0.0420 C   0  0  0  0  0  0  0  0  0  0  0  0
   -0.8540    3.7720   -0.4380 C   0  0  0  0  0  0  0  0  0  0  0  0
    0.1630    3.7980   -0.7890 H   0  0  0  0  0  0  0  0  0  0  0  0
   -1.5860    4.9450   -0.3970 C   0  0  0  0  0  0  0  0  0  0  0  0
   -1.1340    5.8710   -0.7090 H   0  0  0  0  0  0  0  0  0  0  0  0
   -2.8960    4.9290    0.0450 C   0  0  0  0  0  0  0  0  0  0  0  0
   -3.4680    5.8400    0.0780 H   0  0  0  0  0  0  0  0  0  0  0  0
   -3.4670    3.7340    0.4470 C   0  0  0  0  0  0  0  0  0  0  0  0
   -4.4850    3.7160    0.7950 H   0  0  0  0  0  0  0  0  0  0  0  0
   -2.7280    2.5650    0.4040 C   0  0  0  0  0  0  0  0  0  0  0  0
   -3.1830    1.6480    0.7330 H   0  0  0  0  0  0  0  0  0  0  0  0
  1  2  1  0  0  0  0
  2  3  2  0  0  0  0
  2  4  1  0  0  0  0
  4  5  1  0  0  0  0
  4 11  2  0  0  0  0
  5  6  1  0  0  0  0
  5  7  2  0  0  0  0
  7  8  1  0  0  0  0
  8  9  1  0  0  0  0
  8 10  2  0  0  0  0
 10 11  1  0  0  0  0
 10 13  1  0  0  0  0
 11 12  1  0  0  0  0
 13 14  1  0  0  0  0
 13 22  2  0  0  0  0
 14 15  1  0  0  0  0
 14 16  2  0  0  0  0
 16 17  1  0  0  0  0
 16 18  1  0  0  0  0
 18 19  1  0  0  0  0
 18 20  2  0  0  0  0
 20 21  1  0  0  0  0
 20 22  1  0  0  0  0
 22 23  1  0  0  0  0
M  CHG  1   1  -1
M  END
>  <Catalog ID>
Z363993550

>  <a_acc>
1

>  <a_don>
0

>  <a_heavy>
15

>  <logP>
2.467

>  <logS>
-2.78297

>  <TPSA>
53.02

>  <Weight>
198.20099

$$$$
Z90121065
  MOE2024           3D

 17 17  0  0  0  0  0  0  0  0999 V2000
    2.7600   -0.0020    0.1040 N   0  0  0  0  0  0  0  0  0  0  0  0
    3.2230    0.8570   -0.2020 H   0  0  0  0  0  0  0  0  0  0  0  0
    3.2130   -0.8430   -0.2590 H   0  0  0  0  0  0  0  0  0  0  0  0
    1.3780    0.0110    0.0770 C   0  0  0  0  0  0  0  0  0  0  0  0
    0.6580   -1.1770    0.0680 C   0  0  0  0  0  0  0  0  0  0  0  0
    1.1830   -2.1120    0.1010 H   0  0  0  0  0  0  0  0  0  0  0  0
   -0.7230   -1.1670    0.0200 C   0  0  0  0  0  0  0  0  0  0  0  0
   -1.2690   -2.0960    0.0130 H   0  0  0  0  0  0  0  0  0  0  0  0
   -1.4490    0.0270   -0.0190 C   0  0  0  0  0  0  0  0  0  0  0  0
   -2.9020    0.0310   -0.0750 C   0  0  0  0  0  0  0  0  0  0  0  0
   -3.5490   -1.0300   -0.0970 O   0  5  0  0  0  0  0  0  0  0  0  0
   -3.5310    1.1130   -0.1060 O   0  0  0  0  0  0  0  0  0  0  0  0
   -0.7010    1.2100    0.0000 C   0  0  0  0  0  0  0  0  0  0  0  0
   -1.3500    2.3810   -0.0340 O   0  0  0  0  0  0  0  0  0  0  0  0
   -2.3380    2.1680   -0.0670 H   0  0  0  0  0  0  0  0  0  0  0  0
    0.6800    1.2080    0.0490 C   0  0  0  0  0  0  0  0  0  0  0  0
    1.2030    2.1430    0.0660 H   0  0  0  0  0  0  0  0  0  0  0  0
  1  2  1  0  0  0  0
  1  3  1  0  0  0  0
  1  4  1  0  0  0  0
  4  5  1  0  0  0  0
  4 16  2  0  0  0  0
  5  6  1  0  0  0  0
  5  7  2  0  0  0  0
  7  8  1  0  0  0  0
  7  9  1  0  0  0  0
  9 10  1  0  0  0  0
  9 13  2  0  0  0  0
 10 11  1  0  0  0  0
 10 12  2  0  0  0  0
 13 14  1  0  0  0  0
 13 16  1  0  0  0  0
 14 15  1  0  0  0  0
 16 17  1  0  0  0  0
M  CHG  1  11  -1
M  END
>  <Catalog ID>
Z90121065

>  <a_acc>
1

>  <a_don>
2

>  <a_heavy>
11

>  <logP>
0.759

>  <logS>
-0.97365999

>  <TPSA>
86.379997

>  <Weight>
152.129

$$$$
Z104473820
  MOE2024           3D

 16 16  0  0  0  0  0  0  0  0999 V2000
    2.8910    0.0520    0.0020 C   0  0  0  0  0  0  0  0  0  0  0  0
    3.2840   -0.9490    0.0020 H   0  0  0  0  0  0  0  0  0  0  0  0
    3.2510    0.5610    0.8780 H   0  0  0  0  0  0  0  0  0  0  0  0
    3.2540    0.5610   -0.8720 H   0  0  0  0  0  0  0  0  0  0  0  0
    1.3730    0.0390    0.0000 C   0  0  0  0  0  0  0  0  0  0  0  0
    0.6750   -1.1600   -0.0010 C   0  0  0  0  0  0  0  0  0  0  0  0
    1.2060   -2.0960   -0.0010 H   0  0  0  0  0  0  0  0  0  0  0  0
   -0.7110   -1.1680   -0.0030 C   0  0  0  0  0  0  0  0  0  0  0  0
   -1.2450   -2.1020   -0.0040 H   0  0  0  0  0  0  0  0  0  0  0  0
   -1.4080    0.0270   -0.0040 C   0  0  0  0  0  0  0  0  0  0  0  0
   -2.4830    0.0380   -0.0060 H   0  0  0  0  0  0  0  0  0  0  0  0
   -0.7140    1.2240   -0.0030 C   0  0  0  0  0  0  0  0  0  0  0  0
   -1.3980    2.3770   -0.0040 O   0  0  0  0  0  0  0  0  0  0  0  0
   -0.8200    3.1590   -0.0030 H   0  0  0  0  0  0  0  0  0  0  0  0
    0.6720    1.2350   -0.0010 C   0  0  0  0  0  0  0  0  0  0  0  0
    1.2050    2.1670    0.0000 H   0  0  0  0  0  0  0  0  0  0  0  0
  1  2  1  0  0  0  0
  1  3  1  0  0  0  0
  1  4  1  0  0  0  0
  1  5  1  0  0  0  0
  5  6  1  0  0  0  0
  5 15  2  0  0  0  0
  6  7  1  0  0  0  0
  6  8  2  0  0  0  0
  8  9  1  0  0  0  0
  8 10  1  0  0  0  0
 10 11  1  0  0  0  0
 10 12  2  0  0  0  0
 12 13  1  0  0  0  0
 12 15  1  0  0  0  0
 13 14  1  0  0  0  0
 15 16  1  0  0  0  0
M  END
>  <Catalog ID>
Z104473820

>  <a_acc>
1

>  <a_don>
1

>  <a_heavy>
8

>  <logP>
1.933

>  <logS>
-1.49685

>  <TPSA>
20.23

>  <Weight>
108.14

$$$$
Z800222638
  MOE2024           3D

 10 10  0  0  0  0  0  0  0  0999 V2000
    3.3610    1.0350    0.0000 O   0  5  0  0  0  0  0  0  0  0  0  0
    2.7210   -0.0380   -0.0010 C   0  0  0  0  0  0  0  0  0  0  0  0
    3.3710   -1.1020   -0.0040 O   0  0  0  0  0  0  0  0  0  0  0  0
    1.2500    0.0080    0.0010 C   0  0  0  0  0  0  0  0  0  0  0  0
    0.5600    1.1710    0.0010 C   0  0  0  0  0  0  0  0  0  0  0  0
    0.9180    2.1850    0.0010 H   0  0  0  0  0  0  0  0  0  0  0  0
   -1.1520    0.8800    0.0030 S   0  0  0  0  0  0  0  0  0  0  0  0
   -0.8210   -0.8330    0.0030 C   0  0  0  0  0  0  0  0  0  0  0  0
   -1.6660   -1.4970    0.0050 H   0  0  0  0  0  0  0  0  0  0  0  0
    0.4120   -1.1350    0.0020 N   0  0  0  0  0  0  0  0  0  0  0  0
  1  2  1  0  0  0  0
  2  3  2  0  0  0  0
  2  4  1  0  0  0  0
  4  5  2  0  0  0  0
  4 10  1  0  0  0  0
  5  6  1  0  0  0  0
  5  7  1  0  0  0  0
  7  8  1  0  0  0  0
  8  9  1  0  0  0  0
  8 10  2  0  0  0  0
M  CHG  1   1  -1
M  END
>  <Catalog ID>
Z800222638

>  <a_acc>
1

>  <a_don>
0

>  <a_heavy>
8

>  <logP>
0.116

>  <logS>
-0.63727999

>  <TPSA>
53.02

>  <Weight>
128.131

$$$$
Z104511114
  MOE2024           3D

 18 18  0  0  0  0  0  0  0  0999 V2000
    3.7640   -1.5530   -0.0270 C   0  0  0  0  0  0  0  0  0  0  0  0
    4.8370   -1.4950   -0.0480 H   0  0  0  0  0  0  0  0  0  0  0  0
    3.3920   -2.0700   -0.8930 H   0  0  0  0  0  0  0  0  0  0  0  0
    3.4240   -2.0120    0.8840 H   0  0  0  0  0  0  0  0  0  0  0  0
    3.1130    0.1750   -0.0710 S   0  0  0  0  0  0  0  0  0  0  0  0
    1.3120    0.0540   -0.0140 C   0  0  0  0  0  0  0  0  0  0  0  0
    0.6530   -1.1660    0.0240 C   0  0  0  0  0  0  0  0  0  0  0  0
    1.1930   -2.0910    0.0240 H   0  0  0  0  0  0  0  0  0  0  0  0
   -0.7300   -1.1860    0.0640 C   0  0  0  0  0  0  0  0  0  0  0  0
   -1.2530   -2.1230    0.0990 H   0  0  0  0  0  0  0  0  0  0  0  0
   -1.4580   -0.0010    0.0630 C   0  0  0  0  0  0  0  0  0  0  0  0
   -2.8400   -0.0290    0.0910 N   0  0  0  0  0  0  0  0  0  0  0  0
   -3.3100    0.8090   -0.2620 H   0  0  0  0  0  0  0  0  0  0  0  0
   -3.2780   -0.8850   -0.2600 H   0  0  0  0  0  0  0  0  0  0  0  0
   -0.7800    1.2110    0.0310 C   0  0  0  0  0  0  0  0  0  0  0  0
   -1.3360    2.1300    0.0410 H   0  0  0  0  0  0  0  0  0  0  0  0
    0.6030    1.2410   -0.0100 C   0  0  0  0  0  0  0  0  0  0  0  0
    1.1320    2.1770   -0.0360 H   0  0  0  0  0  0  0  0  0  0  0  0
  1  2  1  0  0  0  0
  1  3  1  0  0  0  0
  1  4  1  0  0  0  0
  1  5  1  0  0  0  0
  5  6  1  0  0  0  0
  6  7  1  0  0  0  0
  6 17  2  0  0  0  0
  7  8  1  0  0  0  0
  7  9  2  0  0  0  0
  9 10  1  0  0  0  0
  9 11  1  0  0  0  0
 11 12  1  0  0  0  0
 11 15  2  0  0  0  0
 12 13  1  0  0  0  0
 12 14  1  0  0  0  0
 15 16  1  0  0  0  0
 15 17  1  0  0  0  0
 17 18  1  0  0  0  0
M  END
>  <Catalog ID>
Z104511114

>  <a_acc>
0

>  <a_don>
1

>  <a_heavy>
9

>  <logP>
1.826

>  <logS>
-2.1271601

>  <TPSA>
26.02

>  <Weight>
139.222

$$$$
Z104501152
  MOE2024           3D

 18 18  0  0  0  0  0  0  0  0999 V2000
    2.8420    0.1270   -0.0120 C   0  0  0  0  0  0  0  0  0  0  0  0
    3.2760   -0.8550   -0.0340 H   0  0  0  0  0  0  0  0  0  0  0  0
    3.1900    0.6430    0.8630 H   0  0  0  0  0  0  0  0  0  0  0  0
    3.1610    0.6700   -0.8830 H   0  0  0  0  0  0  0  0  0  0  0  0
    1.3300    0.0550    0.0120 C   0  0  0  0  0  0  0  0  0  0  0  0
    0.6700   -1.1530   -0.0080 C   0  0  0  0  0  0  0  0  0  0  0  0
    1.2100   -2.0800   -0.0400 H   0  0  0  0  0  0  0  0  0  0  0  0
   -0.7060   -1.1300    0.0120 C   0  0  0  0  0  0  0  0  0  0  0  0
   -1.5150   -2.4100   -0.0130 C   0  0  0  0  0  0  0  0  0  0  0  0
   -0.8750   -3.2720   -0.0350 H   0  0  0  0  0  0  0  0  0  0  0  0
   -2.1450   -2.4190   -0.8830 H   0  0  0  0  0  0  0  0  0  0  0  0
   -2.1350   -2.4580    0.8630 H   0  0  0  0  0  0  0  0  0  0  0  0
   -1.3750   -0.0050    0.0530 N   0  0  0  0  0  0  0  0  0  0  0  0
   -0.6350    1.0890    0.0820 C   0  0  0  0  0  0  0  0  0  0  0  0
   -1.3070    2.2410    0.1150 N   0  0  0  0  0  0  0  0  0  0  0  0
   -0.7770    3.0520   -0.1880 H   0  0  0  0  0  0  0  0  0  0  0  0
   -2.2740    2.1790   -0.1880 H   0  0  0  0  0  0  0  0  0  0  0  0
    0.6810    1.1930    0.0530 N   0  0  0  0  0  0  0  0  0  0  0  0
  1  2  1  0  0  0  0
  1  3  1  0  0  0  0
  1  4  1  0  0  0  0
  1  5  1  0  0  0  0
  5  6  1  0  0  0  0
  5 18  2  0  0  0  0
  6  7  1  0  0  0  0
  6  8  2  0  0  0  0
  8  9  1  0  0  0  0
  8 13  1  0  0  0  0
  9 10  1  0  0  0  0
  9 11  1  0  0  0  0
  9 12  1  0  0  0  0
 13 14  2  0  0  0  0
 14 15  1  0  0  0  0
 14 18  1  0  0  0  0
 15 16  1  0  0  0  0
 15 17  1  0  0  0  0
M  END
>  <Catalog ID>
Z104501152

>  <a_acc>
2

>  <a_don>
1

>  <a_heavy>
9

>  <logP>
-0.22

>  <logS>
-1.2371401

>  <TPSA>
51.799999

>  <Weight>
123.159

$$$$
Z33546463
  MOE2024           3D

 15 15  0  0  0  0  0  0  0  0999 V2000
    3.6530   -1.1000    0.2720 N   0  0  0  0  0  0  0  0  0  0  0  0
    4.6680   -0.9930    0.2670 H   0  0  0  0  0  0  0  0  0  0  0  0
    3.2890   -1.9880    0.6120 H   0  0  0  0  0  0  0  0  0  0  0  0
    2.8930   -0.0190   -0.0220 C   0  0  0  0  0  0  0  0  0  0  0  0
    3.4960    0.9970   -0.2850 O   0  0  0  0  0  0  0  0  0  0  0  0
    1.4430   -0.0600   -0.0120 C   0  0  0  0  0  0  0  0  0  0  0  0
    0.7180   -1.2480   -0.0280 C   0  0  0  0  0  0  0  0  0  0  0  0
    1.2100   -2.2020   -0.0610 H   0  0  0  0  0  0  0  0  0  0  0  0
   -0.6580   -1.1710   -0.0070 C   0  0  0  0  0  0  0  0  0  0  0  0
   -1.2590   -2.0630   -0.0180 H   0  0  0  0  0  0  0  0  0  0  0  0
   -1.2680    0.0700    0.0250 C   0  0  0  0  0  0  0  0  0  0  0  0
   -2.3440    0.1210    0.0420 H   0  0  0  0  0  0  0  0  0  0  0  0
   -0.6160    1.2190    0.0350 N   0  0  0  0  0  0  0  0  0  0  0  0
    0.7060    1.1240    0.0130 C   0  0  0  0  0  0  0  0  0  0  0  0
    1.2530    2.0530    0.0160 H   0  0  0  0  0  0  0  0  0  0  0  0
  1  2  1  0  0  0  0
  1  3  1  0  0  0  0
  1  4  1  0  0  0  0
  4  5  2  0  0  0  0
  4  6  1  0  0  0  0
  6  7  1  0  0  0  0
  6 14  2  0  0  0  0
  7  8  1  0  0  0  0
  7  9  2  0  0  0  0
  9 10  1  0  0  0  0
  9 11  1  0  0  0  0
 11 12  1  0  0  0  0
 11 13  2  0  0  0  0
 13 14  1  0  0  0  0
 14 15  1  0  0  0  0
M  END
>  <Catalog ID>
Z33546463

>  <a_acc>
2

>  <a_don>
1

>  <a_heavy>
9

>  <logP>
-0.384

>  <logS>
-0.37886

>  <TPSA>
55.98

>  <Weight>
122.127

$$$$
Z425794744
  MOE2024           3D

 19 19  0  0  0  0  0  0  0  0999 V2000
    2.6350   -0.0360   -0.0050 C   0  0  0  0  0  0  0  0  0  0  0  0
    3.0040    0.9730   -0.0070 H   0  0  0  0  0  0  0  0  0  0  0  0
    3.0050   -0.5410   -0.8780 H   0  0  0  0  0  0  0  0  0  0  0  0
    3.0000   -0.5350    0.8740 H   0  0  0  0  0  0  0  0  0  0  0  0
    1.1230   -0.0450   -0.0090 C   0  0  0  0  0  0  0  0  0  0  0  0
    0.3750    1.0430   -0.0130 N   0  0  0  0  0  0  0  0  0  0  0  0
   -0.9380    0.6550   -0.0170 C   0  0  0  0  0  0  0  0  0  0  0  0
   -1.7660    1.3470   -0.0210 H   0  0  0  0  0  0  0  0  0  0  0  0
   -0.9540   -0.6940   -0.0150 C   0  0  0  0  0  0  0  0  0  0  0  0
   -1.8130   -1.3460   -0.0170 H   0  0  0  0  0  0  0  0  0  0  0  0
    0.3560   -1.1310   -0.0090 N   0  0  0  0  0  0  0  0  0  0  0  0
    0.8500   -2.5460   -0.0060 C   0  0  0  0  0  0  0  0  0  0  0  0
    1.4640   -2.6990    0.8650 H   0  0  0  0  0  0  0  0  0  0  0  0
    1.4550   -2.7060   -0.8830 H   0  0  0  0  0  0  0  0  0  0  0  0
   -0.2740   -3.5930    0.0040 C   0  0  0  0  0  0  0  0  0  0  0  0
   -0.8830   -3.5090   -0.8790 H   0  0  0  0  0  0  0  0  0  0  0  0
   -0.8750   -3.5000    0.8920 H   0  0  0  0  0  0  0  0  0  0  0  0
    0.3020   -4.8550    0.0090 O   0  0  0  0  0  0  0  0  0  0  0  0
   -0.3760   -5.5630    0.0160 H   0  0  0  0  0  0  0  0  0  0  0  0
  1  2  1  0  0  0  0
  1  3  1  0  0  0  0
  1  4  1  0  0  0  0
  1  5  1  0  0  0  0
  5  6  2  0  0  0  0
  5 11  1  0  0  0  0
  6  7  1  0  0  0  0
  7  8  1  0  0  0  0
  7  9  2  0  0  0  0
  9 10  1  0  0  0  0
  9 11  1  0  0  0  0
 11 12  1  0  0  0  0
 12 13  1  0  0  0  0
 12 14  1  0  0  0  0
 12 15  1  0  0  0  0
 15 16  1  0  0  0  0
 15 17  1  0  0  0  0
 15 18  1  0  0  0  0
 18 19  1  0  0  0  0
M  END
>  <Catalog ID>
Z425794744

>  <a_acc>
2

>  <a_don>
1

>  <a_heavy>
9

>  <logP>
-0.33000001

>  <logS>
0.32714

>  <TPSA>
38.049999

>  <Weight>
126.159

$$$$
Z1192367241
  MOE2024           3D

 19 19  0  0  0  0  0  0  0  0999 V2000
    2.9190    0.0150    0.0050 C   0  0  0  0  0  0  0  0  0  0  0  0
    3.3100   -0.9870    0.0070 H   0  0  0  0  0  0  0  0  0  0  0  0
    3.2870    0.5230    0.8790 H   0  0  0  0  0  0  0  0  0  0  0  0
    3.2920    0.5220   -0.8680 H   0  0  0  0  0  0  0  0  0  0  0  0
    1.3990    0.0160    0.0000 C   0  0  0  0  0  0  0  0  0  0  0  0
    0.6870   -1.1920   -0.0030 C   0  0  0  0  0  0  0  0  0  0  0  0
    1.2330   -2.1210   -0.0020 H   0  0  0  0  0  0  0  0  0  0  0  0
   -0.6830   -1.1810   -0.0080 C   0  0  0  0  0  0  0  0  0  0  0  0
   -1.5030   -2.4600   -0.0110 C   0  0  0  0  0  0  0  0  0  0  0  0
   -0.8600   -3.3220   -0.0090 H   0  0  0  0  0  0  0  0  0  0  0  0
   -2.1230   -2.5070   -0.8900 H   0  0  0  0  0  0  0  0  0  0  0  0
   -2.1280   -2.5080    0.8640 H   0  0  0  0  0  0  0  0  0  0  0  0
   -1.3460    0.0090   -0.0090 N   0  0  0  0  0  0  0  0  0  0  0  0
   -0.7100    1.1930   -0.0060 C   0  0  0  0  0  0  0  0  0  0  0  0
   -1.4170    2.3370   -0.0070 N   0  0  0  0  0  0  0  0  0  0  0  0
   -0.9490    3.2530   -0.0050 H   0  0  0  0  0  0  0  0  0  0  0  0
   -2.4370    2.4360   -0.0100 H   0  0  0  0  0  0  0  0  0  0  0  0
    0.6930    1.1910   -0.0010 C   0  0  0  0  0  0  0  0  0  0  0  0
    1.2060    2.1360    0.0010 H   0  0  0  0  0  0  0  0  0  0  0  0
  1  2  1  0  0  0  0
  1  3  1  0  0  0  0
  1  4  1  0  0  0  0
  1  5  1  0  0  0  0
  5  6  1  0  0  0  0
  5 18  2  0  0  0  0
  6  7  1  0  0  0  0
  6  8  2  0  0  0  0
  8  9  1  0  0  0  0
  8 13  1  0  0  0  0
  9 10  1  0  0  0  0
  9 11  1  0  0  0  0
  9 12  1  0  0  0  0
 13 14  2  0  0  0  0
 14 15  1  0  0  0  0
 14 18  1  0  0  0  0
 15 16  1  0  0  0  0
 15 17  1  0  0  0  0
 18 19  1  0  0  0  0
M  END
>  <Catalog ID>
Z1192367241

>  <a_acc>
1

>  <a_don>
1

>  <a_heavy>
9

>  <logP>
1.038

>  <logS>
-0.94619

>  <TPSA>
38.91

>  <Weight>
122.171

$$$$
Z1203748449
  MOE2024           3D

 14 14  0  0  0  0  0  0  0  0999 V2000
    3.7870   -0.0210   -0.5060 N   0  0  0  0  0  0  0  0  0  0  0  0
    3.7900   -1.0280   -0.6510 H   0  0  0  0  0  0  0  0  0  0  0  0
    4.7070    0.2040   -0.1410 H   0  0  0  0  0  0  0  0  0  0  0  0
    2.7830    0.1880    0.7990 S   0  0  0  0  0  0  0  0  0  0  0  0
    3.1700   -0.8870    1.6790 O   0  0  0  0  0  0  0  0  0  0  0  0
    2.9880    1.5540    1.2180 O   0  0  0  0  0  0  0  0  0  0  0  0
    1.0850    0.0110    0.1470 C   0  0  0  0  0  0  0  0  0  0  0  0
    0.2290    1.0530    0.2400 N   0  0  0  0  0  0  0  0  0  0  0  0
    0.4480    1.9680    0.6520 H   0  0  0  0  0  0  0  0  0  0  0  0
   -0.9230    0.6440   -0.3190 C   0  0  0  0  0  0  0  0  0  0  0  0
   -1.8030    1.2590   -0.3950 H   0  0  0  0  0  0  0  0  0  0  0  0
   -0.7160   -0.6240   -0.7280 C   0  0  0  0  0  0  0  0  0  0  0  0
   -1.4140   -1.2820   -1.2230 H   0  0  0  0  0  0  0  0  0  0  0  0
    0.5370   -1.0210   -0.4410 N   0  0  0  0  0  0  0  0  0  0  0  0
  1  2  1  0  0  0  0
  1  3  1  0  0  0  0
  1  4  1  0  0  0  0
  4  5  2  0  0  0  0
  4  6  2  0  0  0  0
  4  7  1  0  0  0  0
  7  8  1  0  0  0  0
  7 14  2  0  0  0  0
  8  9  1  0  0  0  0
  8 10  1  0  0  0  0
 10 11  1  0  0  0  0
 10 12  2  0  0  0  0
 12 13  1  0  0  0  0
 12 14  1  0  0  0  0
M  END
>  <Catalog ID>
Z1203748449

>  <a_acc>
4

>  <a_don>
3

>  <a_heavy>
9

>  <logP>
-1.563

>  <logS>
-0.81744999

>  <TPSA>
88.839996

>  <Weight>
147.158

$$$$
Z56820416
  MOE2024           3D

 17 18  0  0  0  0  0  0  0  0999 V2000
   -2.4570   -3.0180    0.1190 N   0  0  0  0  0  0  0  0  0  0  0  0
   -2.9830   -2.7310   -0.7060 H   0  0  0  0  0  0  0  0  0  0  0  0
   -2.3710   -4.0360    0.0990 H   0  0  0  0  0  0  0  0  0  0  0  0
   -1.1760   -2.5360    0.0330 C   0  0  0  0  0  0  0  0  0  0  0  0
   -0.2070   -3.3650   -0.0920 N   0  0  0  0  0  0  0  0  0  0  0  0
    0.9010   -2.5730   -0.1680 N   0  0  0  0  0  0  0  0  0  0  0  0
    1.8460   -2.9610   -0.2650 H   0  0  0  0  0  0  0  0  0  0  0  0
    0.5960   -1.2460   -0.1000 C   0  0  0  0  0  0  0  0  0  0  0  0
    1.3740   -0.0830   -0.1440 C   0  0  0  0  0  0  0  0  0  0  0  0
    2.4420   -0.1480   -0.2530 H   0  0  0  0  0  0  0  0  0  0  0  0
    0.7430    1.1350   -0.0440 C   0  0  0  0  0  0  0  0  0  0  0  0
    1.3120    2.0480   -0.0740 H   0  0  0  0  0  0  0  0  0  0  0  0
   -0.6500    1.2070    0.1010 C   0  0  0  0  0  0  0  0  0  0  0  0
   -1.1190    2.1720    0.1800 H   0  0  0  0  0  0  0  0  0  0  0  0
   -1.4070    0.0600    0.1430 C   0  0  0  0  0  0  0  0  0  0  0  0
   -2.4760    0.0910    0.2600 H   0  0  0  0  0  0  0  0  0  0  0  0
   -0.7740   -1.1840    0.0370 C   0  0  0  0  0  0  0  0  0  0  0  0
  1  2  1  0  0  0  0
  1  3  1  0  0  0  0
  1  4  1  0  0  0  0
  4  5  2  0  0  0  0
  4 17  1  0  0  0  0
  5  6  1  0  0  0  0
  6  7  1  0  0  0  0
  6  8  1  0  0  0  0
  8  9  1  0  0  0  0
  8 17  2  0  0  0  0
  9 10  1  0  0  0  0
  9 11  2  0  0  0  0
 11 12  1  0  0  0  0
 11 13  1  0  0  0  0
 13 14  1  0  0  0  0
 13 15  2  0  0  0  0
 15 16  1  0  0  0  0
 15 17  1  0  0  0  0
M  END
>  <Catalog ID>
Z56820416

>  <a_acc>
2

>  <a_don>
3

>  <a_heavy>
10

>  <logP>
1.6670001

>  <logS>
-1.6997401

>  <TPSA>
54.700001

>  <Weight>
133.15399

$$$$
Z57127530
  MOE2024           3D

 14 14  0  0  0  0  0  0  0  0999 V2000
    3.5800    1.0710   -0.0010 O   0  5  0  0  0  0  0  0  0  0  0  0
    2.9450    0.0000   -0.0010 C   0  0  0  0  0  0  0  0  0  0  0  0
    3.5800   -1.0700    0.0000 O   0  0  0  0  0  0  0  0  0  0  0  0
    1.4860    0.0000   -0.0010 C   0  0  0  0  0  0  0  0  0  0  0  0
    0.7610   -1.1970    0.0000 C   0  0  0  0  0  0  0  0  0  0  0  0
    1.3080   -2.1260    0.0000 H   0  0  0  0  0  0  0  0  0  0  0  0
   -0.6220   -1.2080    0.0000 C   0  0  0  0  0  0  0  0  0  0  0  0
   -1.1670   -2.1330    0.0000 H   0  0  0  0  0  0  0  0  0  0  0  0
   -1.2910    0.0000    0.0000 C   0  0  0  0  0  0  0  0  0  0  0  0
   -3.2150    0.0000    0.0000 Br  0  0  0  0  0  0  0  0  0  0  0  0
   -0.6220    1.2080    0.0000 C   0  0  0  0  0  0  0  0  0  0  0  0
   -1.1670    2.1340   -0.0010 H   0  0  0  0  0  0  0  0  0  0  0  0
    0.7610    1.1970   -0.0010 C   0  0  0  0  0  0  0  0  0  0  0  0
    1.3080    2.1260   -0.0010 H   0  0  0  0  0  0  0  0  0  0  0  0
  1  2  1  0  0  0  0
  2  3  2  0  0  0  0
  2  4  1  0  0  0  0
  4  5  1  0  0  0  0
  4 13  2  0  0  0  0
  5  6  1  0  0  0  0
  5  7  2  0  0  0  0
  7  8  1  0  0  0  0
  7  9  1  0  0  0  0
  9 10  1  0  0  0  0
  9 11  2  0  0  0  0
 11 12  1  0  0  0  0
 11 13  1  0  0  0  0
 13 14  1  0  0  0  0
M  CHG  1   1  -1
M  END
>  <Catalog ID>
Z57127530

>  <a_acc>
0

>  <a_don>
0

>  <a_heavy>
10

>  <logP>
2.5020001

>  <logS>
-2.7051201

>  <TPSA>
40.130001

>  <Weight>
200.011

$$$$
Z1203162319
  MOE2024           3D

 17 18  0  0  0  0  0  0  0  0999 V2000
   -2.7150    4.0040    0.0000 O   0  0  0  0  0  0  0  0  0  0  0  0
   -3.6040    3.6080    0.0010 H   0  0  0  0  0  0  0  0  0  0  0  0
   -1.7440    3.0720    0.0000 C   0  0  0  0  0  0  0  0  0  0  0  0
   -0.4130    3.5030   -0.0010 C   0  0  0  0  0  0  0  0  0  0  0  0
   -0.2140    4.5590   -0.0020 H   0  0  0  0  0  0  0  0  0  0  0  0
    0.6130    2.5860   -0.0020 C   0  0  0  0  0  0  0  0  0  0  0  0
    1.6400    2.9040   -0.0030 H   0  0  0  0  0  0  0  0  0  0  0  0
    0.2970    1.2240   -0.0010 C   0  0  0  0  0  0  0  0  0  0  0  0
    1.1100    0.1180   -0.0010 N   0  0  0  0  0  0  0  0  0  0  0  0
    2.1350    0.1380   -0.0020 H   0  0  0  0  0  0  0  0  0  0  0  0
    0.3150   -0.9940    0.0000 C   0  0  0  0  0  0  0  0  0  0  0  0
    0.7260   -1.9880    0.0000 H   0  0  0  0  0  0  0  0  0  0  0  0
   -0.9860   -0.6180    0.0010 C   0  0  0  0  0  0  0  0  0  0  0  0
   -1.8600   -1.2460    0.0010 H   0  0  0  0  0  0  0  0  0  0  0  0
   -1.0270    0.7930    0.0000 C   0  0  0  0  0  0  0  0  0  0  0  0
   -2.0630    1.7330    0.0000 C   0  0  0  0  0  0  0  0  0  0  0  0
   -3.0780    1.3880    0.0010 H   0  0  0  0  0  0  0  0  0  0  0  0
  1  2  1  0  0  0  0
  1  3  1  0  0  0  0
  3  4  1  0  0  0  0
  3 16  2  0  0  0  0
  4  5  1  0  0  0  0
  4  6  2  0  0  0  0
  6  7  1  0  0  0  0
  6  8  1  0  0  0  0
  8  9  1  0  0  0  0
  8 15  2  0  0  0  0
  9 10  1  0  0  0  0
  9 11  1  0  0  0  0
 11 12  1  0  0  0  0
 11 13  2  0  0  0  0
 13 14  1  0  0  0  0
 13 15  1  0  0  0  0
 15 16  1  0  0  0  0
 16 17  1  0  0  0  0
M  END
>  <Catalog ID>
Z1203162319

>  <a_acc>
1

>  <a_don>
2

>  <a_heavy>
10

>  <logP>
2.0039999

>  <logS>
-1.31283

>  <TPSA>
36.02

>  <Weight>
133.14999

$$$$
Z104507276
  MOE2024           3D

 20 21  0  0  0  0  0  0  0  0999 V2000
   -2.5060    5.4100    0.0050 C   0  0  0  0  0  0  0  0  0  0  0  0
   -3.4590    5.9070    0.0070 H   0  0  0  0  0  0  0  0  0  0  0  0
   -1.9590    5.6730   -0.8830 H   0  0  0  0  0  0  0  0  0  0  0  0
   -1.9560    5.6720    0.8920 H   0  0  0  0  0  0  0  0  0  0  0  0
   -2.7390    4.0190    0.0040 O   0  0  0  0  0  0  0  0  0  0  0  0
   -1.7020    3.1350    0.0020 C   0  0  0  0  0  0  0  0  0  0  0  0
   -0.3500    3.5320   -0.0020 C   0  0  0  0  0  0  0  0  0  0  0  0
   -0.0850    4.5710   -0.0030 H   0  0  0  0  0  0  0  0  0  0  0  0
    0.6560    2.5930   -0.0040 C   0  0  0  0  0  0  0  0  0  0  0  0
    1.6900    2.8880   -0.0070 H   0  0  0  0  0  0  0  0  0  0  0  0
    0.3170    1.2380   -0.0030 C   0  0  0  0  0  0  0  0  0  0  0  0
    1.1080    0.1150   -0.0040 N   0  0  0  0  0  0  0  0  0  0  0  0
    2.1330    0.1140   -0.0080 H   0  0  0  0  0  0  0  0  0  0  0  0
    0.2910   -0.9800   -0.0010 C   0  0  0  0  0  0  0  0  0  0  0  0
    0.6810   -1.9830   -0.0010 H   0  0  0  0  0  0  0  0  0  0  0  0
   -1.0020   -0.5770    0.0020 C   0  0  0  0  0  0  0  0  0  0  0  0
   -1.8900   -1.1840    0.0050 H   0  0  0  0  0  0  0  0  0  0  0  0
   -1.0130    0.8340    0.0010 C   0  0  0  0  0  0  0  0  0  0  0  0
   -2.0260    1.7970    0.0040 C   0  0  0  0  0  0  0  0  0  0  0  0
   -3.0530    1.4850    0.0070 H   0  0  0  0  0  0  0  0  0  0  0  0
  1  2  1  0  0  0  0
  1  3  1  0  0  0  0
  1  4  1  0  0  0  0
  1  5  1  0  0  0  0
  5  6  1  0  0  0  0
  6  7  1  0  0  0  0
  6 19  2  0  0  0  0
  7  8  1  0  0  0  0
  7  9  2  0  0  0  0
  9 10  1  0  0  0  0
  9 11  1  0  0  0  0
 11 12  1  0  0  0  0
 11 18  2  0  0  0  0
 12 13  1  0  0  0  0
 12 14  1  0  0  0  0
 14 15  1  0  0  0  0
 14 16  2  0  0  0  0
 16 17  1  0  0  0  0
 16 18  1  0  0  0  0
 18 19  1  0  0  0  0
 19 20  1  0  0  0  0
M  END
>  <Catalog ID>
Z104507276

>  <a_acc>
1

>  <a_don>
1

>  <a_heavy>
11

>  <logP>
2.2679999

>  <logS>
-1.72516

>  <TPSA>
25.02

>  <Weight>
147.177

$$$$
Z94600359
  MOE2024           3D

 19 19  0  0  0  0  0  0  0  0999 V2000
    2.9420   -0.0460    0.1380 C   0  0  0  0  0  0  0  0  0  0  0  0
    3.2780   -1.0660    0.1690 H   0  0  0  0  0  0  0  0  0  0  0  0
    3.2850    0.4540    1.0260 H   0  0  0  0  0  0  0  0  0  0  0  0
    3.3730    0.4360   -0.7210 H   0  0  0  0  0  0  0  0  0  0  0  0
    1.4240    0.0340    0.0630 C   0  0  0  0  0  0  0  0  0  0  0  0
    0.6940   -1.1310   -0.0810 C   0  0  0  0  0  0  0  0  0  0  0  0
    1.1880   -2.0820   -0.1450 H   0  0  0  0  0  0  0  0  0  0  0  0
   -0.6860   -1.0790   -0.1400 C   0  0  0  0  0  0  0  0  0  0  0  0
   -1.2580   -1.9830   -0.2480 H   0  0  0  0  0  0  0  0  0  0  0  0
   -1.3300    0.1380   -0.0590 C   0  0  0  0  0  0  0  0  0  0  0  0
   -2.4060    0.1680   -0.1070 H   0  0  0  0  0  0  0  0  0  0  0  0
   -0.6360    1.3430    0.0800 C   0  0  0  0  0  0  0  0  0  0  0  0
   -1.3880    2.5960    0.1350 C   0  0  0  0  0  0  0  0  0  0  0  0
   -2.6340    2.5840    0.1450 O   0  5  0  0  0  0  0  0  0  0  0  0
   -0.8290    3.7140    0.1550 O   0  0  0  0  0  0  0  0  0  0  0  0
    0.7690    1.2670    0.1470 C   0  0  0  0  0  0  0  0  0  0  0  0
    1.5130    2.4200    0.2900 N   0  0  0  0  0  0  0  0  0  0  0  0
    0.8590    3.2350    0.3630 H   0  0  0  0  0  0  0  0  0  0  0  0
    2.1560    2.6030   -0.4760 H   0  0  0  0  0  0  0  0  0  0  0  0
  1  2  1  0  0  0  0
  1  3  1  0  0  0  0
  1  4  1  0  0  0  0
  1  5  1  0  0  0  0
  5  6  1  0  0  0  0
  5 16  2  0  0  0  0
  6  7  1  0  0  0  0
  6  8  2  0  0  0  0
  8  9  1  0  0  0  0
  8 10  1  0  0  0  0
 10 11  1  0  0  0  0
 10 12  2  0  0  0  0
 12 13  1  0  0  0  0
 12 16  1  0  0  0  0
 13 14  1  0  0  0  0
 13 15  2  0  0  0  0
 16 17  1  0  0  0  0
 17 18  1  0  0  0  0
 17 19  1  0  0  0  0
M  CHG  1  14  -1
M  END
>  <Catalog ID>
Z94600359

>  <a_acc>
0

>  <a_don>
1

>  <a_heavy>
11

>  <logP>
1.326

>  <logS>
-1.49608

>  <TPSA>
66.150002

>  <Weight>
150.157

$$$$
Z56347237
  MOE2024           3D

 19 20  0  0  0  0  0  0  0  0999 V2000
   -1.4140   -4.8640    0.0080 N   0  0  0  0  0  0  0  0  0  0  0  0
   -2.4340   -4.9740    0.0100 H   0  0  0  0  0  0  0  0  0  0  0  0
   -0.9450   -5.7790    0.0060 H   0  0  0  0  0  0  0  0  0  0  0  0
   -0.7220   -3.7240    0.0060 C   0  0  0  0  0  0  0  0  0  0  0  0
    0.6930   -3.7230    0.0030 C   0  0  0  0  0  0  0  0  0  0  0  0
    1.1980   -4.6730    0.0010 H   0  0  0  0  0  0  0  0  0  0  0  0
    1.3950   -2.5590    0.0010 C   0  0  0  0  0  0  0  0  0  0  0  0
    2.4740   -2.5510   -0.0020 H   0  0  0  0  0  0  0  0  0  0  0  0
    0.7120   -1.3120    0.0030 C   0  0  0  0  0  0  0  0  0  0  0  0
    1.3770   -0.0790    0.0020 C   0  0  0  0  0  0  0  0  0  0  0  0
    2.4540   -0.0590   -0.0010 H   0  0  0  0  0  0  0  0  0  0  0  0
    0.6720    1.1010    0.0040 C   0  0  0  0  0  0  0  0  0  0  0  0
    1.1900    2.0470    0.0020 H   0  0  0  0  0  0  0  0  0  0  0  0
   -0.7210    1.0870    0.0070 C   0  0  0  0  0  0  0  0  0  0  0  0
   -1.2550    2.0240    0.0090 H   0  0  0  0  0  0  0  0  0  0  0  0
   -1.3950   -0.1110    0.0090 C   0  0  0  0  0  0  0  0  0  0  0  0
   -2.4710   -0.1060    0.0110 H   0  0  0  0  0  0  0  0  0  0  0  0
   -0.6940   -1.3220    0.0070 C   0  0  0  0  0  0  0  0  0  0  0  0
   -1.3500   -2.5440    0.0080 N   0  0  0  0  0  0  0  0  0  0  0  0
  1  2  1  0  0  0  0
  1  3  1  0  0  0  0
  1  4  1  0  0  0  0
  4  5  1  0  0  0  0
  4 19  2  0  0  0  0
  5  6  1  0  0  0  0
  5  7  2  0  0  0  0
  7  8  1  0  0  0  0
  7  9  1  0  0  0  0
  9 10  1  0  0  0  0
  9 18  2  0  0  0  0
 10 11  1  0  0  0  0
 10 12  2  0  0  0  0
 12 13  1  0  0  0  0
 12 14  1  0  0  0  0
 14 15  1  0  0  0  0
 14 16  2  0  0  0  0
 16 17  1  0  0  0  0
 16 18  1  0  0  0  0
 18 19  1  0  0  0  0
M  END
>  <Catalog ID>
Z56347237

>  <a_acc>
1

>  <a_don>
1

>  <a_heavy>
11

>  <logP>
1.841

>  <logS>
-2.0055599

>  <TPSA>
38.91

>  <Weight>
144.177

$$$$
Z57069881
  MOE2024           3D

 19 20  0  0  0  0  0  0  0  0999 V2000
    2.8770   -0.0950    0.0040 C   0  0  0  0  0  0  0  0  0  0  0  0
    3.1950   -1.1220    0.0010 H   0  0  0  0  0  0  0  0  0  0  0  0
    3.2750    0.3840    0.8800 H   0  0  0  0  0  0  0  0  0  0  0  0
    3.2770    0.3890   -0.8690 H   0  0  0  0  0  0  0  0  0  0  0  0
    1.3620    0.0070    0.0030 C   0  0  0  0  0  0  0  0  0  0  0  0
    0.5720   -1.1430   -0.0010 C   0  0  0  0  0  0  0  0  0  0  0  0
    1.0380   -2.1120   -0.0030 H   0  0  0  0  0  0  0  0  0  0  0  0
   -0.8130   -1.0600   -0.0020 C   0  0  0  0  0  0  0  0  0  0  0  0
   -1.4240   -1.9430   -0.0050 H   0  0  0  0  0  0  0  0  0  0  0  0
   -1.4310    0.1830    0.0010 C   0  0  0  0  0  0  0  0  0  0  0  0
   -2.8010    0.4010    0.0010 N   0  0  0  0  0  0  0  0  0  0  0  0
   -3.0650    1.6500    0.0040 C   0  0  0  0  0  0  0  0  0  0  0  0
   -4.2940    2.2150    0.0040 N   0  0  0  0  0  0  0  0  0  0  0  0
   -4.4380    3.2240    0.0060 H   0  0  0  0  0  0  0  0  0  0  0  0
   -5.1230    1.6200    0.0030 H   0  0  0  0  0  0  0  0  0  0  0  0
   -1.6590    2.7120    0.0080 S   0  0  0  0  0  0  0  0  0  0  0  0
   -0.6210    1.3040    0.0050 C   0  0  0  0  0  0  0  0  0  0  0  0
    0.7590    1.2550    0.0060 C   0  0  0  0  0  0  0  0  0  0  0  0
    1.3360    2.1620    0.0090 H   0  0  0  0  0  0  0  0  0  0  0  0
  1  2  1  0  0  0  0
  1  3  1  0  0  0  0
  1  4  1  0  0  0  0
  1  5  1  0  0  0  0
  5  6  1  0  0  0  0
  5 18  2  0  0  0  0
  6  7  1  0  0  0  0
  6  8  2  0  0  0  0
  8  9  1  0  0  0  0
  8 10  1  0  0  0  0
 10 11  1  0  0  0  0
 10 17  2  0  0  0  0
 11 12  2  0  0  0  0
 12 13  1  0  0  0  0
 12 16  1  0  0  0  0
 13 14  1  0  0  0  0
 13 15  1  0  0  0  0
 16 17  1  0  0  0  0
 17 18  1  0  0  0  0
 18 19  1  0  0  0  0
M  END
>  <Catalog ID>
Z57069881

>  <a_acc>
1

>  <a_don>
1

>  <a_heavy>
11

>  <logP>
2.1960001

>  <logS>
-2.8665299

>  <TPSA>
38.91

>  <Weight>
164.23199

$$$$
Z56960237
  MOE2024           3D

 18 19  0  0  0  0  0  0  0  0999 V2000
   -2.6320   -2.6530    0.0050 O   0  0  0  0  0  0  0  0  0  0  0  0
   -1.4170   -2.5530    0.0040 C   0  0  0  0  0  0  0  0  0  0  0  0
   -0.6920   -3.7110    0.0040 N   0  0  0  0  0  0  0  0  0  0  0  0
   -1.2480   -4.5680    0.0040 H   0  0  0  0  0  0  0  0  0  0  0  0
    0.6890   -3.7190    0.0040 C   0  0  0  0  0  0  0  0  0  0  0  0
    1.1800   -4.6800    0.0030 H   0  0  0  0  0  0  0  0  0  0  0  0
    1.3680   -2.5500    0.0040 C   0  0  0  0  0  0  0  0  0  0  0  0
    2.4440   -2.5320    0.0040 H   0  0  0  0  0  0  0  0  0  0  0  0
    0.6860   -1.2910    0.0040 C   0  0  0  0  0  0  0  0  0  0  0  0
    1.3720   -0.0750    0.0050 C   0  0  0  0  0  0  0  0  0  0  0  0
    2.4480   -0.0780    0.0040 H   0  0  0  0  0  0  0  0  0  0  0  0
    0.6930    1.1240    0.0050 C   0  0  0  0  0  0  0  0  0  0  0  0
    1.2320    2.0560    0.0050 H   0  0  0  0  0  0  0  0  0  0  0  0
   -0.6950    1.1320    0.0050 C   0  0  0  0  0  0  0  0  0  0  0  0
   -1.2250    2.0700    0.0050 H   0  0  0  0  0  0  0  0  0  0  0  0
   -1.3880   -0.0590    0.0050 C   0  0  0  0  0  0  0  0  0  0  0  0
   -2.4650   -0.0560    0.0050 H   0  0  0  0  0  0  0  0  0  0  0  0
   -0.7210   -1.2880    0.0040 C   0  0  0  0  0  0  0  0  0  0  0  0
  1  2  2  0  0  0  0
  2  3  1  0  0  0  0
  2 18  1  0  0  0  0
  3  4  1  0  0  0  0
  3  5  1  0  0  0  0
  5  6  1  0  0  0  0
  5  7  2  0  0  0  0
  7  8  1  0  0  0  0
  7  9  1  0  0  0  0
  9 10  1  0  0  0  0
  9 18  2  0  0  0  0
 10 11  1  0  0  0  0
 10 12  2  0  0  0  0
 12 13  1  0  0  0  0
 12 14  1  0  0  0  0
 14 15  1  0  0  0  0
 14 16  2  0  0  0  0
 16 17  1  0  0  0  0
 16 18  1  0  0  0  0
M  END
>  <Catalog ID>
Z56960237

>  <a_acc>
1

>  <a_don>
2

>  <a_heavy>
11

>  <logP>
1.247

>  <logS>
-1.92598

>  <TPSA>
29.1

>  <Weight>
145.161

$$$$
Z57127332
  MOE2024           3D

 20 20  0  0  0  0  0  0  0  0999 V2000
    5.7460   -0.1560    0.0010 O   0  5  0  0  0  0  0  0  0  0  0  0
    5.2030   -1.2660    0.0030 C   0  0  0  0  0  0  0  0  0  0  0  0
    5.8450   -2.3190    0.0050 O   0  0  0  0  0  0  0  0  0  0  0  0
    3.6950   -1.3690    0.0020 C   0  0  0  0  0  0  0  0  0  0  0  0
    3.4170   -1.9260    0.8750 H   0  0  0  0  0  0  0  0  0  0  0  0
    3.4180   -1.9270   -0.8710 H   0  0  0  0  0  0  0  0  0  0  0  0
    2.9850   -0.0040    0.0000 C   0  0  0  0  0  0  0  0  0  0  0  0
    3.3110    0.5450   -0.8660 H   0  0  0  0  0  0  0  0  0  0  0  0
    3.3110    0.5460    0.8660 H   0  0  0  0  0  0  0  0  0  0  0  0
    1.4550   -0.0540    0.0000 C   0  0  0  0  0  0  0  0  0  0  0  0
    0.7240   -1.2350    0.0000 C   0  0  0  0  0  0  0  0  0  0  0  0
    1.2210   -2.1880    0.0000 H   0  0  0  0  0  0  0  0  0  0  0  0
   -0.6610   -1.2080    0.0000 C   0  0  0  0  0  0  0  0  0  0  0  0
   -1.2130   -2.1310    0.0000 H   0  0  0  0  0  0  0  0  0  0  0  0
   -1.3320    0.0010    0.0000 C   0  0  0  0  0  0  0  0  0  0  0  0
   -2.4070    0.0220   -0.0010 H   0  0  0  0  0  0  0  0  0  0  0  0
   -0.6140    1.1840    0.0000 C   0  0  0  0  0  0  0  0  0  0  0  0
   -1.1290    2.1280    0.0000 H   0  0  0  0  0  0  0  0  0  0  0  0
    0.7700    1.1520    0.0000 C   0  0  0  0  0  0  0  0  0  0  0  0
    1.3230    2.0750    0.0000 H   0  0  0  0  0  0  0  0  0  0  0  0
  1  2  1  0  0  0  0
  2  3  2  0  0  0  0
  2  4  1  0  0  0  0
  4  5  1  0  0  0  0
  4  6  1  0  0  0  0
  4  7  1  0  0  0  0
  7  8  1  0  0  0  0
  7  9  1  0  0  0  0
  7 10  1  0  0  0  0
 10 11  1  0  0  0  0
 10 19  2  0  0  0  0
 11 12  1  0  0  0  0
 11 13  2  0  0  0  0
 13 14  1  0  0  0  0
 13 15  1  0  0  0  0
 15 16  1  0  0  0  0
 15 17  2  0  0  0  0
 17 18  1  0  0  0  0
 17 19  1  0  0  0  0
 19 20  1  0  0  0  0
M  CHG  1   1  -1
M  END
>  <Catalog ID>
Z57127332

>  <a_acc>
0

>  <a_don>
0

>  <a_heavy>
11

>  <logP>
1.88

>  <logS>
-1.55812

>  <TPSA>
40.130001

>  <Weight>
149.16899

$$$$
Z1198172211
  MOE2024           3D

 15 16  0  0  0  0  0  0  0  0999 V2000
   -2.7090    4.5400    0.0200 O   0  5  0  0  0  0  0  0  0  0  0  0
   -1.4720    4.3940    0.0140 C   0  0  0  0  0  0  0  0  0  0  0  0
   -0.7280    5.3860    0.0120 O   0  0  0  0  0  0  0  0  0  0  0  0
   -0.9360    3.0570    0.0080 C   0  0  0  0  0  0  0  0  0  0  0  0
    0.3590    2.5900    0.0020 C   0  0  0  0  0  0  0  0  0  0  0  0
    1.2600    3.1760    0.0000 H   0  0  0  0  0  0  0  0  0  0  0  0
    0.2740    1.2000   -0.0010 C   0  0  0  0  0  0  0  0  0  0  0  0
    1.0760    0.1250   -0.0070 O   0  0  0  0  0  0  0  0  0  0  0  0
    0.2630   -0.9350   -0.0060 C   0  0  0  0  0  0  0  0  0  0  0  0
    0.7100   -1.9130   -0.0100 H   0  0  0  0  0  0  0  0  0  0  0  0
   -1.0400   -0.5720    0.0000 C   0  0  0  0  0  0  0  0  0  0  0  0
   -1.9240   -1.1830    0.0020 H   0  0  0  0  0  0  0  0  0  0  0  0
   -1.0290    0.8310    0.0040 C   0  0  0  0  0  0  0  0  0  0  0  0
   -1.7850    1.9730    0.0090 N   0  0  0  0  0  0  0  0  0  0  0  0
   -2.8080    2.0780    0.0140 H   0  0  0  0  0  0  0  0  0  0  0  0
  1  2  1  0  0  0  0
  2  3  2  0  0  0  0
  2  4  1  0  0  0  0
  4  5  2  0  0  0  0
  4 14  1  0  0  0  0
  5  6  1  0  0  0  0
  5  7  1  0  0  0  0
  7  8  1  0  0  0  0
  7 13  2  0  0  0  0
  8  9  1  0  0  0  0
  9 10  1  0  0  0  0
  9 11  2  0  0  0  0
 11 12  1  0  0  0  0
 11 13  1  0  0  0  0
 13 14  1  0  0  0  0
 14 15  1  0  0  0  0
M  CHG  1   1  -1
M  END
>  <Catalog ID>
Z1198172211

>  <a_acc>
0

>  <a_don>
1

>  <a_heavy>
11

>  <logP>
1.119

>  <logS>
-1.625

>  <TPSA>
69.059998

>  <Weight>
150.11299

$$$$
Z57150899
  MOE2024           3D

 18 19  0  0  0  0  0  0  0  0999 V2000
    2.5190    0.1950    0.0200 O   0  0  0  0  0  0  0  0  0  0  0  0
    1.3090    0.1060    0.0150 C   0  0  0  0  0  0  0  0  0  0  0  0
    0.6170   -1.1430    0.0120 C   0  0  0  0  0  0  0  0  0  0  0  0
    1.2360   -2.0200    0.0140 H   0  0  0  0  0  0  0  0  0  0  0  0
   -0.7320   -1.1990    0.0060 C   0  0  0  0  0  0  0  0  0  0  0  0
   -1.2750   -2.1290    0.0040 H   0  0  0  0  0  0  0  0  0  0  0  0
   -1.4780    0.0190    0.0030 C   0  0  0  0  0  0  0  0  0  0  0  0
   -2.8720    0.0640   -0.0030 C   0  0  0  0  0  0  0  0  0  0  0  0
   -3.4330   -0.8530   -0.0050 H   0  0  0  0  0  0  0  0  0  0  0  0
   -3.5360    1.2740   -0.0050 C   0  0  0  0  0  0  0  0  0  0  0  0
   -4.6110    1.3140   -0.0100 H   0  0  0  0  0  0  0  0  0  0  0  0
   -2.8180    2.4620   -0.0020 C   0  0  0  0  0  0  0  0  0  0  0  0
   -3.4840    3.6220   -0.0050 O   0  0  0  0  0  0  0  0  0  0  0  0
   -2.9080    4.4070   -0.0020 H   0  0  0  0  0  0  0  0  0  0  0  0
   -1.4360    2.4450    0.0040 C   0  0  0  0  0  0  0  0  0  0  0  0
   -0.8700    3.3570    0.0060 H   0  0  0  0  0  0  0  0  0  0  0  0
   -0.7690    1.2300    0.0060 C   0  0  0  0  0  0  0  0  0  0  0  0
    0.5860    1.2310    0.0120 O   0  0  0  0  0  0  0  0  0  0  0  0
  1  2  2  0  0  0  0
  2  3  1  0  0  0  0
  2 18  1  0  0  0  0
  3  4  1  0  0  0  0
  3  5  2  0  0  0  0
  5  6  1  0  0  0  0
  5  7  1  0  0  0  0
  7  8  1  0  0  0  0
  7 17  2  0  0  0  0
  8  9  1  0  0  0  0
  8 10  2  0  0  0  0
 10 11  1  0  0  0  0
 10 12  1  0  0  0  0
 12 13  1  0  0  0  0
 12 15  2  0  0  0  0
 13 14  1  0  0  0  0
 15 16  1  0  0  0  0
 15 17  1  0  0  0  0
 17 18  1  0  0  0  0
M  END
>  <Catalog ID>
Z57150899

>  <a_acc>
2

>  <a_don>
1

>  <a_heavy>
12

>  <logP>
1.904

>  <logS>
-2.40905

>  <TPSA>
46.529999

>  <Weight>
162.144

$$$$
Z317037960
  MOE2024           3D

 23 23  0  0  0  0  0  0  0  0999 V2000
    2.9220    0.0030    0.0060 C   0  0  0  0  0  0  0  0  0  0  0  0
    3.2760   -1.0110    0.0060 H   0  0  0  0  0  0  0  0  0  0  0  0
    3.3050    0.4950    0.8830 H   0  0  0  0  0  0  0  0  0  0  0  0
    3.3100    0.4970   -0.8670 H   0  0  0  0  0  0  0  0  0  0  0  0
    1.4000    0.0560    0.0020 C   0  0  0  0  0  0  0  0  0  0  0  0
    0.6940   -1.1380    0.0020 C   0  0  0  0  0  0  0  0  0  0  0  0
    1.2190   -2.0760    0.0040 H   0  0  0  0  0  0  0  0  0  0  0  0
   -0.6880   -1.1410   -0.0020 C   0  0  0  0  0  0  0  0  0  0  0  0
   -1.2260   -2.0720   -0.0020 H   0  0  0  0  0  0  0  0  0  0  0  0
   -1.3740    0.0570   -0.0050 C   0  0  0  0  0  0  0  0  0  0  0  0
   -2.4490    0.0650   -0.0080 H   0  0  0  0  0  0  0  0  0  0  0  0
   -0.6760    1.2520   -0.0050 C   0  0  0  0  0  0  0  0  0  0  0  0
   -1.2390    2.1660   -0.0070 H   0  0  0  0  0  0  0  0  0  0  0  0
    0.7140    1.2710   -0.0010 C   0  0  0  0  0  0  0  0  0  0  0  0
    1.5030    2.5890    0.0000 C   0  0  0  0  0  0  0  0  0  0  0  0
    2.1410    2.6100   -0.8660 H   0  0  0  0  0  0  0  0  0  0  0  0
    2.1400    2.6100    0.8670 H   0  0  0  0  0  0  0  0  0  0  0  0
    0.6730    3.8850    0.0000 C   0  0  0  0  0  0  0  0  0  0  0  0
    0.0520    3.9230    0.8730 H   0  0  0  0  0  0  0  0  0  0  0  0
    0.0530    3.9240   -0.8740 H   0  0  0  0  0  0  0  0  0  0  0  0
    1.5150    5.1410    0.0010 C   0  0  0  0  0  0  0  0  0  0  0  0
    2.7480    5.0580    0.0070 O   0  5  0  0  0  0  0  0  0  0  0  0
    0.9230    6.2240   -0.0040 O   0  0  0  0  0  0  0  0  0  0  0  0
  1  2  1  0  0  0  0
  1  3  1  0  0  0  0
  1  4  1  0  0  0  0
  1  5  1  0  0  0  0
  5  6  1  0  0  0  0
  5 14  2  0  0  0  0
  6  7  1  0  0  0  0
  6  8  2  0  0  0  0
  8  9  1  0  0  0  0
  8 10  1  0  0  0  0
 10 11  1  0  0  0  0
 10 12  2  0  0  0  0
 12 13  1  0  0  0  0
 12 14  1  0  0  0  0
 14 15  1  0  0  0  0
 15 16  1  0  0  0  0
 15 17  1  0  0  0  0
 15 18  1  0  0  0  0
 18 19  1  0  0  0  0
 18 20  1  0  0  0  0
 18 21  1  0  0  0  0
 21 22  1  0  0  0  0
 21 23  2  0  0  0  0
M  CHG  1  22  -1
M  END
>  <Catalog ID>
Z317037960

>  <a_acc>
0

>  <a_don>
0

>  <a_heavy>
12

>  <logP>
2.1760001

>  <logS>
-2.0320401

>  <TPSA>
40.130001

>  <Weight>
163.196

$$$$
Z1255431342
  MOE2024           3D

 19 19  0  0  0  0  0  0  0  0999 V2000
    3.7850   -1.5010    0.0030 C   0  0  0  0  0  0  0  0  0  0  0  0
    4.8580   -1.4370    0.0030 H   0  0  0  0  0  0  0  0  0  0  0  0
    3.4310   -1.9860   -0.8890 H   0  0  0  0  0  0  0  0  0  0  0  0
    3.4300   -1.9940    0.8890 H   0  0  0  0  0  0  0  0  0  0  0  0
    3.1270    0.2240    0.0100 S   0  0  0  0  0  0  0  0  0  0  0  0
    1.3260    0.0910    0.0030 C   0  0  0  0  0  0  0  0  0  0  0  0
    0.6860   -1.1400    0.0010 C   0  0  0  0  0  0  0  0  0  0  0  0
    1.2340   -2.0590    0.0050 H   0  0  0  0  0  0  0  0  0  0  0  0
   -0.6960   -1.1730   -0.0050 C   0  0  0  0  0  0  0  0  0  0  0  0
   -1.2280   -2.1060   -0.0060 H   0  0  0  0  0  0  0  0  0  0  0  0
   -1.4170    0.0090   -0.0090 C   0  0  0  0  0  0  0  0  0  0  0  0
   -2.7530   -0.0500   -0.0140 O   0  0  0  0  0  0  0  0  0  0  0  0
   -3.0900    0.9040   -0.0170 H   0  0  0  0  0  0  0  0  0  0  0  0
   -0.7960    1.2640   -0.0070 C   0  0  0  0  0  0  0  0  0  0  0  0
    0.6020    1.2700   -0.0010 C   0  0  0  0  0  0  0  0  0  0  0  0
    1.1190    2.2140    0.0010 H   0  0  0  0  0  0  0  0  0  0  0  0
   -1.5610    2.5020   -0.0110 C   0  0  0  0  0  0  0  0  0  0  0  0
   -2.8120    2.4700   -0.0170 O   0  5  0  0  0  0  0  0  0  0  0  0
   -0.9980    3.6090   -0.0100 O   0  0  0  0  0  0  0  0  0  0  0  0
  1  2  1  0  0  0  0
  1  3  1  0  0  0  0
  1  4  1  0  0  0  0
  1  5  1  0  0  0  0
  5  6  1  0  0  0  0
  6  7  1  0  0  0  0
  6 15  2  0  0  0  0
  7  8  1  0  0  0  0
  7  9  2  0  0  0  0
  9 10  1  0  0  0  0
  9 11  1  0  0  0  0
 11 12  1  0  0  0  0
 11 14  2  0  0  0  0
 12 13  1  0  0  0  0
 14 15  1  0  0  0  0
 14 17  1  0  0  0  0
 15 16  1  0  0  0  0
 17 18  1  0  0  0  0
 17 19  2  0  0  0  0
M  CHG  1  18  -1
M  END
>  <Catalog ID>
Z1255431342

>  <a_acc>
1

>  <a_don>
1

>  <a_heavy>
12

>  <logP>
2.023

>  <logS>
-2.2741799

>  <TPSA>
60.360001

>  <Weight>
183.207

$$$$
Z45415660
  MOE2024           3D

 24 25  0  0  0  0  0  0  0  0999 V2000
   -3.5960    4.7580   -0.6860 N   0  0  0  0  0  0  0  0  0  0  0  0
   -3.5340    5.7720   -0.6570 H   0  0  0  0  0  0  0  0  0  0  0  0
   -4.5850    4.5290   -0.6480 H   0  0  0  0  0  0  0  0  0  0  0  0
   -3.0520    4.3090    0.8100 S   0  0  0  0  0  0  0  0  0  0  0  0
   -2.5470    5.5510    1.3430 O   0  0  0  0  0  0  0  0  0  0  0  0
   -4.2190    3.6870    1.3870 O   0  0  0  0  0  0  0  0  0  0  0  0
   -1.7280    3.1150    0.4810 C   0  0  0  0  0  0  0  0  0  0  0  0
   -0.4090    3.5350    0.3190 C   0  0  0  0  0  0  0  0  0  0  0  0
   -0.1750    4.5820    0.4040 H   0  0  0  0  0  0  0  0  0  0  0  0
    0.6110    2.6340    0.0540 C   0  0  0  0  0  0  0  0  0  0  0  0
    1.6250    2.9720   -0.0660 H   0  0  0  0  0  0  0  0  0  0  0  0
    0.3040    1.2920   -0.0550 C   0  0  0  0  0  0  0  0  0  0  0  0
    1.2400    0.1430   -0.3350 C   0  0  0  0  0  0  0  0  0  0  0  0
    2.1100    0.1790    0.2960 H   0  0  0  0  0  0  0  0  0  0  0  0
    1.5340    0.1650   -1.3690 H   0  0  0  0  0  0  0  0  0  0  0  0
    0.3790   -1.0990   -0.0400 C   0  0  0  0  0  0  0  0  0  0  0  0
    0.6120   -1.4530    0.9490 H   0  0  0  0  0  0  0  0  0  0  0  0
    0.5620   -1.8890   -0.7470 H   0  0  0  0  0  0  0  0  0  0  0  0
   -1.0890   -0.6370   -0.0660 C   0  0  0  0  0  0  0  0  0  0  0  0
   -1.6580   -1.0840    0.7300 H   0  0  0  0  0  0  0  0  0  0  0  0
   -1.5420   -0.8650   -1.0150 H   0  0  0  0  0  0  0  0  0  0  0  0
   -0.9880    0.8590    0.0960 C   0  0  0  0  0  0  0  0  0  0  0  0
   -2.0060    1.7560    0.3600 C   0  0  0  0  0  0  0  0  0  0  0  0
   -3.0160    1.4020    0.4750 H   0  0  0  0  0  0  0  0  0  0  0  0
  1  2  1  0  0  0  0
  1  3  1  0  0  0  0
  1  4  1  0  0  0  0
  4  5  2  0  0  0  0
  4  6  2  0  0  0  0
  4  7  1  0  0  0  0
  7  8  1  0  0  0  0
  7 23  2  0  0  0  0
  8  9  1  0  0  0  0
  8 10  2  0  0  0  0
 10 11  1  0  0  0  0
 10 12  1  0  0  0  0
 12 13  1  0  0  0  0
 12 22  2  0  0  0  0
 13 14  1  0  0  0  0
 13 15  1  0  0  0  0
 13 16  1  0  0  0  0
 16 17  1  0  0  0  0
 16 18  1  0  0  0  0
 16 19  1  0  0  0  0
 19 20  1  0  0  0  0
 19 21  1  0  0  0  0
 19 22  1  0  0  0  0
 22 23  1  0  0  0  0
 23 24  1  0  0  0  0
M  END
>  <Catalog ID>
Z45415660

>  <a_acc>
2

>  <a_don>
1

>  <a_heavy>
13

>  <logP>
0.97899997

>  <logS>
-2.9725101

>  <TPSA>
60.16

>  <Weight>
197.258

$$$$
Z56854473
  MOE2024           3D

 23 24  0  0  0  0  0  0  0  0999 V2000
   -2.8820   -5.0890   -0.1980 C   0  0  0  0  0  0  0  0  0  0  0  0
   -3.1460   -4.6260   -1.1310 H   0  0  0  0  0  0  0  0  0  0  0  0
   -3.3760   -4.5860    0.6110 H   0  0  0  0  0  0  0  0  0  0  0  0
   -3.2140   -6.1120   -0.2190 H   0  0  0  0  0  0  0  0  0  0  0  0
   -1.3790   -5.0410    0.0000 C   0  0  0  0  0  0  0  0  0  0  0  0
   -0.8200   -6.1010    0.1160 O   0  0  0  0  0  0  0  0  0  0  0  0
   -0.6840   -3.7690    0.0410 C   0  0  0  0  0  0  0  0  0  0  0  0
    0.7050   -3.7320    0.2110 C   0  0  0  0  0  0  0  0  0  0  0  0
    1.2410   -4.6610    0.3130 H   0  0  0  0  0  0  0  0  0  0  0  0
    1.4090   -2.5420    0.2510 C   0  0  0  0  0  0  0  0  0  0  0  0
    2.4770   -2.5380    0.3800 H   0  0  0  0  0  0  0  0  0  0  0  0
    0.7380   -1.3400    0.1200 C   0  0  0  0  0  0  0  0  0  0  0  0
    1.4400   -0.1840    0.1410 O   0  0  0  0  0  0  0  0  0  0  0  0
    0.7740    0.9900   -0.2820 C   0  0  0  0  0  0  0  0  0  0  0  0
    0.7800    1.0080   -1.3580 H   0  0  0  0  0  0  0  0  0  0  0  0
    1.3250    1.8360    0.0880 H   0  0  0  0  0  0  0  0  0  0  0  0
   -0.6680    1.0030    0.2440 C   0  0  0  0  0  0  0  0  0  0  0  0
   -1.2140    1.8390   -0.1550 H   0  0  0  0  0  0  0  0  0  0  0  0
   -0.6730    1.0580    1.3180 H   0  0  0  0  0  0  0  0  0  0  0  0
   -1.3420   -0.1820   -0.1400 O   0  0  0  0  0  0  0  0  0  0  0  0
   -0.6480   -1.3440   -0.0360 C   0  0  0  0  0  0  0  0  0  0  0  0
   -1.3400   -2.5390   -0.0810 C   0  0  0  0  0  0  0  0  0  0  0  0
   -2.4050   -2.4900   -0.2100 H   0  0  0  0  0  0  0  0  0  0  0  0
  1  2  1  0  0  0  0
  1  3  1  0  0  0  0
  1  4  1  0  0  0  0
  1  5  1  0  0  0  0
  5  6  2  0  0  0  0
  5  7  1  0  0  0  0
  7  8  1  0  0  0  0
  7 22  2  0  0  0  0
  8  9  1  0  0  0  0
  8 10  2  0  0  0  0
 10 11  1  0  0  0  0
 10 12  1  0  0  0  0
 12 13  1  0  0  0  0
 12 21  2  0  0  0  0
 13 14  1  0  0  0  0
 14 15  1  0  0  0  0
 14 16  1  0  0  0  0
 14 17  1  0  0  0  0
 17 18  1  0  0  0  0
 17 19  1  0  0  0  0
 17 20  1  0  0  0  0
 20 21  1  0  0  0  0
 21 22  1  0  0  0  0
 22 23  1  0  0  0  0
M  END
>  <Catalog ID>
Z56854473

>  <a_acc>
3

>  <a_don>
0

>  <a_heavy>
13

>  <logP>
1.354

>  <logS>
-1.94675

>  <TPSA>
35.529999

>  <Weight>
178.187

$$$$
Z227832752
  MOE2024           3D

 19 20  0  0  0  0  0  0  0  0999 V2000
    3.5210   -0.8710   -0.5370 O   0  5  0  0  0  0  0  0  0  0  0  0
    2.7810    0.0880   -0.2520 C   0  0  0  0  0  0  0  0  0  0  0  0
    3.2990    1.2170   -0.1670 O   0  0  0  0  0  0  0  0  0  0  0  0
    1.3680   -0.1120   -0.0250 C   0  0  0  0  0  0  0  0  0  0  0  0
    0.3520    1.3270    0.1950 S   0  0  0  0  0  0  0  0  0  0  0  0
   -1.0990    0.3730    0.3850 C   0  0  0  0  0  0  0  0  0  0  0  0
   -2.0190    0.9020    0.5530 H   0  0  0  0  0  0  0  0  0  0  0  0
   -0.8110   -0.9350    0.2880 C   0  0  0  0  0  0  0  0  0  0  0  0
   -1.5300   -1.7290    0.3750 H   0  0  0  0  0  0  0  0  0  0  0  0
    0.5750   -1.2240    0.0570 C   0  0  0  0  0  0  0  0  0  0  0  0
    0.9930   -2.5790   -0.0500 N   0  0  0  0  0  0  0  0  0  0  0  0
    1.9930   -3.2070    0.6380 C   0  0  0  0  0  0  0  0  0  0  0  0
    2.6960   -2.6350    1.2170 H   0  0  0  0  0  0  0  0  0  0  0  0
    1.9420   -4.5500    0.4420 C   0  0  0  0  0  0  0  0  0  0  0  0
    2.6020   -5.2990    0.8440 H   0  0  0  0  0  0  0  0  0  0  0  0
    0.8580   -4.7910   -0.4070 C   0  0  0  0  0  0  0  0  0  0  0  0
    0.5490   -5.7610   -0.7570 H   0  0  0  0  0  0  0  0  0  0  0  0
    0.3060   -3.5810   -0.6840 C   0  0  0  0  0  0  0  0  0  0  0  0
   -0.5420   -3.3610   -1.3030 H   0  0  0  0  0  0  0  0  0  0  0  0
  1  2  1  0  0  0  0
  2  3  2  0  0  0  0
  2  4  1  0  0  0  0
  4  5  1  0  0  0  0
  4 10  2  0  0  0  0
  5  6  1  0  0  0  0
  6  7  1  0  0  0  0
  6  8  2  0  0  0  0
  8  9  1  0  0  0  0
  8 10  1  0  0  0  0
 10 11  1  0  0  0  0
 11 12  1  0  0  0  0
 11 18  1  0  0  0  0
 12 13  1  0  0  0  0
 12 14  2  0  0  0  0
 14 15  1  0  0  0  0
 14 16  1  0  0  0  0
 16 17  1  0  0  0  0
 16 18  2  0  0  0  0
 18 19  1  0  0  0  0
M  CHG  1   1  -1
M  END
>  <Catalog ID>
Z227832752

>  <a_acc>
0

>  <a_don>
0

>  <a_heavy>
13

>  <logP>
2.211

>  <logS>
-1.58249

>  <TPSA>
45.060001

>  <Weight>
192.218

$$$$
Z431953146
  MOE2024           3D

 22 23  0  0  0  0  0  0  0  0999 V2000
    4.8590   -4.8420    0.6960 O   0  0  0  0  0  0  0  0  0  0  0  0
    5.5840   -5.4900    0.7800 H   0  0  0  0  0  0  0  0  0  0  0  0
    4.0880   -5.1230   -0.4300 C   0  0  0  0  0  0  0  0  0  0  0  0
    3.6750   -6.1110   -0.3220 H   0  0  0  0  0  0  0  0  0  0  0  0
    4.7270   -5.0950   -1.2950 H   0  0  0  0  0  0  0  0  0  0  0  0
    2.9610   -4.1120   -0.5930 C   0  0  0  0  0  0  0  0  0  0  0  0
    2.6800   -3.0450    0.2520 C   0  0  0  0  0  0  0  0  0  0  0  0
    3.2250   -2.7900    1.1410 H   0  0  0  0  0  0  0  0  0  0  0  0
    1.6030   -2.4470   -0.3000 C   0  0  0  0  0  0  0  0  0  0  0  0
    1.3150   -3.1420   -1.3790 O   0  0  0  0  0  0  0  0  0  0  0  0
    2.1220   -4.1450   -1.5690 N   0  0  0  0  0  0  0  0  0  0  0  0
    0.8220   -1.2930    0.0870 C   0  0  0  0  0  0  0  0  0  0  0  0
    1.1400   -0.5600    1.2300 C   0  0  0  0  0  0  0  0  0  0  0  0
    1.9790   -0.8550    1.8330 H   0  0  0  0  0  0  0  0  0  0  0  0
    0.3970    0.5440    1.6090 C   0  0  0  0  0  0  0  0  0  0  0  0
    0.6610    1.0940    2.4960 H   0  0  0  0  0  0  0  0  0  0  0  0
   -0.6870    0.9430    0.8480 C   0  0  0  0  0  0  0  0  0  0  0  0
   -1.2670    1.8020    1.1410 H   0  0  0  0  0  0  0  0  0  0  0  0
   -1.0220    0.2330   -0.2900 C   0  0  0  0  0  0  0  0  0  0  0  0
   -1.8650    0.5390   -0.8860 H   0  0  0  0  0  0  0  0  0  0  0  0
   -0.2750   -0.8690   -0.6630 C   0  0  0  0  0  0  0  0  0  0  0  0
   -0.5490   -1.4110   -1.5510 H   0  0  0  0  0  0  0  0  0  0  0  0
  1  2  1  0  0  0  0
  1  3  1  0  0  0  0
  3  4  1  0  0  0  0
  3  5  1  0  0  0  0
  3  6  1  0  0  0  0
  6  7  1  0  0  0  0
  6 11  2  0  0  0  0
  7  8  1  0  0  0  0
  7  9  2  0  0  0  0
  9 10  1  0  0  0  0
  9 12  1  0  0  0  0
 10 11  1  0  0  0  0
 12 13  1  0  0  0  0
 12 21  2  0  0  0  0
 13 14  1  0  0  0  0
 13 15  2  0  0  0  0
 15 16  1  0  0  0  0
 15 17  1  0  0  0  0
 17 18  1  0  0  0  0
 17 19  2  0  0  0  0
 19 20  1  0  0  0  0
 19 21  1  0  0  0  0
 21 22  1  0  0  0  0
M  END
>  <Catalog ID>
Z431953146

>  <a_acc>
2

>  <a_don>
1

>  <a_heavy>
13

>  <logP>
1.55

>  <logS>
-2.3503499

>  <TPSA>
46.259998

>  <Weight>
175.187

$$$$
Z1162450204
  MOE2024           3D

 20 21  0  0  0  0  0  0  0  0999 V2000
   -2.9210   -5.7510   -0.0260 N   0  0  0  0  0  0  0  0  0  0  0  0
   -2.7730   -4.6220   -0.0180 C   0  0  0  0  0  0  0  0  0  0  0  0
   -2.6080   -3.1400   -0.0090 C   0  0  0  0  0  0  0  0  0  0  0  0
   -3.0990   -2.7500    0.8630 H   0  0  0  0  0  0  0  0  0  0  0  0
   -3.0930   -2.7390   -0.8790 H   0  0  0  0  0  0  0  0  0  0  0  0
   -1.1500   -2.6970   -0.0010 C   0  0  0  0  0  0  0  0  0  0  0  0
   -0.0250   -3.4540    0.0050 C   0  0  0  0  0  0  0  0  0  0  0  0
    0.0680   -4.5280    0.0060 H   0  0  0  0  0  0  0  0  0  0  0  0
    1.0740   -2.6450    0.0100 N   0  0  0  0  0  0  0  0  0  0  0  0
    2.0540   -2.9480    0.0150 H   0  0  0  0  0  0  0  0  0  0  0  0
    0.6450   -1.3420    0.0070 C   0  0  0  0  0  0  0  0  0  0  0  0
    1.3770   -0.1500    0.0100 C   0  0  0  0  0  0  0  0  0  0  0  0
    2.4520   -0.1750    0.0140 H   0  0  0  0  0  0  0  0  0  0  0  0
    0.6940    1.0450    0.0060 C   0  0  0  0  0  0  0  0  0  0  0  0
    1.2140    1.9850    0.0080 H   0  0  0  0  0  0  0  0  0  0  0  0
   -0.7040    1.0430    0.0000 C   0  0  0  0  0  0  0  0  0  0  0  0
   -1.5360    2.5800   -0.0050 Cl  0  0  0  0  0  0  0  0  0  0  0  0
   -1.4330   -0.1210   -0.0030 C   0  0  0  0  0  0  0  0  0  0  0  0
   -2.5050   -0.0950   -0.0080 H   0  0  0  0  0  0  0  0  0  0  0  0
   -0.7480   -1.3410    0.0000 C   0  0  0  0  0  0  0  0  0  0  0  0
  1  2  3  0  0  0  0
  2  3  1  0  0  0  0
  3  4  1  0  0  0  0
  3  5  1  0  0  0  0
  3  6  1  0  0  0  0
  6  7  2  0  0  0  0
  6 20  1  0  0  0  0
  7  8  1  0  0  0  0
  7  9  1  0  0  0  0
  9 10  1  0  0  0  0
  9 11  1  0  0  0  0
 11 12  1  0  0  0  0
 11 20  2  0  0  0  0
 12 13  1  0  0  0  0
 12 14  2  0  0  0  0
 14 15  1  0  0  0  0
 14 16  1  0  0  0  0
 16 17  1  0  0  0  0
 16 18  2  0  0  0  0
 18 19  1  0  0  0  0
 18 20  1  0  0  0  0
M  END
>  <Catalog ID>
Z1162450204

>  <a_acc>
1

>  <a_don>
1

>  <a_heavy>
13

>  <logP>
2.6489999

>  <logS>
-2.82147

>  <TPSA>
39.580002

>  <Weight>
190.633

$$$$
Z1378432729
  MOE2024           3D

 20 21  0  0  0  0  0  0  0  0999 V2000
   -0.3520   -5.8480   -0.4640 N   0  0  0  0  0  0  0  0  0  0  0  0
   -1.3500   -5.9370   -0.2910 H   0  0  0  0  0  0  0  0  0  0  0  0
    0.0260   -6.7890   -0.4140 H   0  0  0  0  0  0  0  0  0  0  0  0
    0.2120   -5.1370    0.9240 S   0  0  0  0  0  0  0  0  0  0  0  0
   -0.8090   -5.4820    1.8810 O   0  0  0  0  0  0  0  0  0  0  0  0
    1.5410   -5.6780    1.0720 O   0  0  0  0  0  0  0  0  0  0  0  0
    0.2630   -3.3480    0.5650 C   0  0  0  0  0  0  0  0  0  0  0  0
    1.3150   -2.5020    0.5180 C   0  0  0  0  0  0  0  0  0  0  0  0
    2.3540   -2.7210    0.6900 H   0  0  0  0  0  0  0  0  0  0  0  0
    0.8150   -1.2270    0.1880 C   0  0  0  0  0  0  0  0  0  0  0  0
    1.3600    0.0410   -0.0130 C   0  0  0  0  0  0  0  0  0  0  0  0
    2.4210    0.1880    0.0860 H   0  0  0  0  0  0  0  0  0  0  0  0
    0.5210    1.0880   -0.3380 C   0  0  0  0  0  0  0  0  0  0  0  0
    0.9240    2.0730   -0.4980 H   0  0  0  0  0  0  0  0  0  0  0  0
   -0.8570    0.8870   -0.4660 C   0  0  0  0  0  0  0  0  0  0  0  0
   -1.4920    1.7190   -0.7200 H   0  0  0  0  0  0  0  0  0  0  0  0
   -1.4020   -0.3660   -0.2690 C   0  0  0  0  0  0  0  0  0  0  0  0
   -2.4570   -0.5480   -0.3610 H   0  0  0  0  0  0  0  0  0  0  0  0
   -0.5480   -1.4100    0.0570 C   0  0  0  0  0  0  0  0  0  0  0  0
   -0.8660   -2.6840    0.2840 O   0  0  0  0  0  0  0  0  0  0  0  0
  1  2  1  0  0  0  0
  1  3  1  0  0  0  0
  1  4  1  0  0  0  0
  4  5  2  0  0  0  0
  4  6  2  0  0  0  0
  4  7  1  0  0  0  0
  7  8  2  0  0  0  0
  7 20  1  0  0  0  0
  8  9  1  0  0  0  0
  8 10  1  0  0  0  0
 10 11  1  0  0  0  0
 10 19  2  0  0  0  0
 11 12  1  0  0  0  0
 11 13  2  0  0  0  0
 13 14  1  0  0  0  0
 13 15  1  0  0  0  0
 15 16  1  0  0  0  0
 15 17  2  0  0  0  0
 17 18  1  0  0  0  0
 17 19  1  0  0  0  0
 19 20  1  0  0  0  0
M  END
>  <Catalog ID>
Z1378432729

>  <a_acc>
2

>  <a_don>
1

>  <a_heavy>
13

>  <logP>
0.85299999

>  <logS>
-3.3680799

>  <TPSA>
73.300003

>  <Weight>
197.214

$$$$
Z99601182
  MOE2024           3D

 21 22  0  0  0  0  0  0  0  0999 V2000
    2.9370   -7.0010   -0.0140 O   0  5  0  0  0  0  0  0  0  0  0  0
    1.8740   -6.3570   -0.0120 C   0  0  0  0  0  0  0  0  0  0  0  0
    0.7880   -6.9620   -0.0120 O   0  0  0  0  0  0  0  0  0  0  0  0
    1.9010   -4.9120   -0.0100 C   0  0  0  0  0  0  0  0  0  0  0  0
    3.0580   -4.1410   -0.0090 C   0  0  0  0  0  0  0  0  0  0  0  0
    4.0440   -4.5780   -0.0100 H   0  0  0  0  0  0  0  0  0  0  0  0
    2.8190   -2.8650   -0.0070 N   0  0  0  0  0  0  0  0  0  0  0  0
    1.4630   -2.7460   -0.0060 N   0  0  0  0  0  0  0  0  0  0  0  0
    0.9100   -3.9800   -0.0090 C   0  0  0  0  0  0  0  0  0  0  0  0
   -0.1440   -4.1750   -0.0090 H   0  0  0  0  0  0  0  0  0  0  0  0
    0.7870   -1.4810   -0.0030 C   0  0  0  0  0  0  0  0  0  0  0  0
    1.5090   -0.2880   -0.0170 C   0  0  0  0  0  0  0  0  0  0  0  0
    2.5860   -0.3190   -0.0300 H   0  0  0  0  0  0  0  0  0  0  0  0
    0.8700    0.9400   -0.0150 C   0  0  0  0  0  0  0  0  0  0  0  0
    1.4490    1.8460   -0.0260 H   0  0  0  0  0  0  0  0  0  0  0  0
   -0.5110    1.0010    0.0010 C   0  0  0  0  0  0  0  0  0  0  0  0
   -1.0100    1.9540    0.0030 H   0  0  0  0  0  0  0  0  0  0  0  0
   -1.2480   -0.1700    0.0150 C   0  0  0  0  0  0  0  0  0  0  0  0
   -2.3230   -0.1260    0.0280 H   0  0  0  0  0  0  0  0  0  0  0  0
   -0.6060   -1.3960    0.0130 C   0  0  0  0  0  0  0  0  0  0  0  0
   -1.2050   -2.2880    0.0240 H   0  0  0  0  0  0  0  0  0  0  0  0
  1  2  1  0  0  0  0
  2  3  2  0  0  0  0
  2  4  1  0  0  0  0
  4  5  1  0  0  0  0
  4  9  2  0  0  0  0
  5  6  1  0  0  0  0
  5  7  2  0  0  0  0
  7  8  1  0  0  0  0
  8  9  1  0  0  0  0
  8 11  1  0  0  0  0
  9 10  1  0  0  0  0
 11 12  1  0  0  0  0
 11 20  2  0  0  0  0
 12 13  1  0  0  0  0
 12 14  2  0  0  0  0
 14 15  1  0  0  0  0
 14 16  1  0  0  0  0
 16 17  1  0  0  0  0
 16 18  2  0  0  0  0
 18 19  1  0  0  0  0
 18 20  1  0  0  0  0
 20 21  1  0  0  0  0
M  CHG  1   1  -1
M  END
>  <Catalog ID>
Z99601182

>  <a_acc>
1

>  <a_don>
0

>  <a_heavy>
14

>  <logP>
1.3329999

>  <logS>
-1.76864

>  <TPSA>
57.950001

>  <Weight>
187.17799

$$$$
Z239129930
  MOE2024           3D

 22 22  0  0  0  0  0  0  0  0999 V2000
    4.5060   -3.4100    0.2340 O   0  5  0  0  0  0  0  0  0  0  0  0
    5.4640   -2.6690   -0.0470 C   0  0  0  0  0  0  0  0  0  0  0  0
    6.5620   -3.1080   -0.4060 O   0  0  0  0  0  0  0  0  0  0  0  0
    5.2600   -1.1560    0.0730 C   0  0  0  0  0  0  0  0  0  0  0  0
    5.4900   -0.7040   -0.8730 H   0  0  0  0  0  0  0  0  0  0  0  0
    5.9390   -0.7820    0.8140 H   0  0  0  0  0  0  0  0  0  0  0  0
    3.8510   -0.8290    0.4710 N   0  0  0  0  0  0  0  0  0  0  0  0
    3.4020   -1.7170    0.7430 H   0  0  0  0  0  0  0  0  0  0  0  0
    3.0780    0.1760   -0.0260 C   0  0  0  0  0  0  0  0  0  0  0  0
    3.6160    1.1710   -0.4740 O   0  0  0  0  0  0  0  0  0  0  0  0
    1.6300    0.0530   -0.0130 C   0  0  0  0  0  0  0  0  0  0  0  0
    0.9940   -1.1930   -0.0180 C   0  0  0  0  0  0  0  0  0  0  0  0
    1.5890   -2.0920   -0.0460 H   0  0  0  0  0  0  0  0  0  0  0  0
   -0.3860   -1.3030    0.0050 C   0  0  0  0  0  0  0  0  0  0  0  0
   -0.8480   -2.2750    0.0020 H   0  0  0  0  0  0  0  0  0  0  0  0
   -1.1690   -0.1630    0.0270 C   0  0  0  0  0  0  0  0  0  0  0  0
   -2.2420   -0.2300    0.0450 H   0  0  0  0  0  0  0  0  0  0  0  0
   -0.5600    1.0780    0.0230 C   0  0  0  0  0  0  0  0  0  0  0  0
   -1.3230    2.1800    0.0390 O   0  0  0  0  0  0  0  0  0  0  0  0
   -0.8030    3.0040    0.0190 H   0  0  0  0  0  0  0  0  0  0  0  0
    0.8190    1.1880    0.0020 C   0  0  0  0  0  0  0  0  0  0  0  0
    1.2880    2.1540   -0.0030 H   0  0  0  0  0  0  0  0  0  0  0  0
  1  2  1  0  0  0  0
  2  3  2  0  0  0  0
  2  4  1  0  0  0  0
  4  5  1  0  0  0  0
  4  6  1  0  0  0  0
  4  7  1  0  0  0  0
  7  8  1  0  0  0  0
  7  9  1  0  0  0  0
  9 10  2  0  0  0  0
  9 11  1  0  0  0  0
 11 12  1  0  0  0  0
 11 21  2  0  0  0  0
 12 13  1  0  0  0  0
 12 14  2  0  0  0  0
 14 15  1  0  0  0  0
 14 16  1  0  0  0  0
 16 17  1  0  0  0  0
 16 18  2  0  0  0  0
 18 19  1  0  0  0  0
 18 21  1  0  0  0  0
 19 20  1  0  0  0  0
 21 22  1  0  0  0  0
M  CHG  1   1  -1
M  END
>  <Catalog ID>
Z239129930

>  <a_acc>
2

>  <a_don>
2

>  <a_heavy>
14

>  <logP>
0.56

>  <logS>
-1.42535

>  <TPSA>
89.459999

>  <Weight>
194.166

$$$$
Z596250880
  MOE2024           3D

 21 22  0  0  0  0  0  0  0  0999 V2000
   -2.6960   -5.3920   -0.7570 O   0  5  0  0  0  0  0  0  0  0  0  0
   -2.8800   -4.5930    0.1710 C   0  0  0  0  0  0  0  0  0  0  0  0
   -3.3100   -4.9600    1.2720 O   0  0  0  0  0  0  0  0  0  0  0  0
   -2.6370   -3.1120   -0.0640 C   0  0  0  0  0  0  0  0  0  0  0  0
   -3.2090   -2.5760    0.6670 H   0  0  0  0  0  0  0  0  0  0  0  0
   -3.0230   -2.8740   -1.0350 H   0  0  0  0  0  0  0  0  0  0  0  0
   -1.1790   -2.6620    0.0170 C   0  0  0  0  0  0  0  0  0  0  0  0
   -0.0740   -3.4390    0.1000 C   0  0  0  0  0  0  0  0  0  0  0  0
   -0.0330   -4.5160    0.1240 H   0  0  0  0  0  0  0  0  0  0  0  0
    1.0400   -2.6550    0.1490 N   0  0  0  0  0  0  0  0  0  0  0  0
    2.0040   -2.9880    0.2140 H   0  0  0  0  0  0  0  0  0  0  0  0
    0.6420   -1.3410    0.0930 C   0  0  0  0  0  0  0  0  0  0  0  0
    1.3960   -0.1620    0.1100 C   0  0  0  0  0  0  0  0  0  0  0  0
    2.4680   -0.2100    0.1740 H   0  0  0  0  0  0  0  0  0  0  0  0
    0.7390    1.0460    0.0420 C   0  0  0  0  0  0  0  0  0  0  0  0
    1.2740    1.9780    0.0520 H   0  0  0  0  0  0  0  0  0  0  0  0
   -0.6570    1.0560   -0.0400 C   0  0  0  0  0  0  0  0  0  0  0  0
   -1.5390    2.7680   -0.1330 Br  0  0  0  0  0  0  0  0  0  0  0  0
   -1.4160   -0.0880   -0.0580 C   0  0  0  0  0  0  0  0  0  0  0  0
   -2.4870   -0.0620   -0.1210 H   0  0  0  0  0  0  0  0  0  0  0  0
   -0.7500   -1.3160    0.0100 C   0  0  0  0  0  0  0  0  0  0  0  0
  1  2  1  0  0  0  0
  2  3  2  0  0  0  0
  2  4  1  0  0  0  0
  4  5  1  0  0  0  0
  4  6  1  0  0  0  0
  4  7  1  0  0  0  0
  7  8  2  0  0  0  0
  7 21  1  0  0  0  0
  8  9  1  0  0  0  0
  8 10  1  0  0  0  0
 10 11  1  0  0  0  0
 10 12  1  0  0  0  0
 12 13  1  0  0  0  0
 12 21  2  0  0  0  0
 13 14  1  0  0  0  0
 13 15  2  0  0  0  0
 15 16  1  0  0  0  0
 15 17  1  0  0  0  0
 17 18  1  0  0  0  0
 17 19  2  0  0  0  0
 19 20  1  0  0  0  0
 19 21  1  0  0  0  0
M  CHG  1   1  -1
M  END
>  <Catalog ID>
Z596250880

>  <a_acc>
0

>  <a_don>
1

>  <a_heavy>
14

>  <logP>
2.993

>  <logS>
-3.0564899

>  <TPSA>
55.919998

>  <Weight>
253.075

$$$$
Z1508957209
  MOE2024           3D

 20 21  0  0  0  0  0  0  0  0999 V2000
    3.5600    0.9970    0.0060 O   0  5  0  0  0  0  0  0  0  0  0  0
    2.8850   -0.0480    0.0050 C   0  0  0  0  0  0  0  0  0  0  0  0
    3.4770   -1.1420    0.0070 O   0  0  0  0  0  0  0  0  0  0  0  0
    1.4290    0.0050    0.0030 C   0  0  0  0  0  0  0  0  0  0  0  0
    0.6560   -1.1590    0.0020 C   0  0  0  0  0  0  0  0  0  0  0  0
    1.1700   -2.1070    0.0040 H   0  0  0  0  0  0  0  0  0  0  0  0
   -0.7260   -1.1200   -0.0010 C   0  0  0  0  0  0  0  0  0  0  0  0
   -1.2730   -2.0440   -0.0010 H   0  0  0  0  0  0  0  0  0  0  0  0
   -1.4060    0.0910   -0.0030 C   0  0  0  0  0  0  0  0  0  0  0  0
   -2.8030    0.0850   -0.0060 N   0  0  0  0  0  0  0  0  0  0  0  0
   -3.2580   -0.8260   -0.0080 H   0  0  0  0  0  0  0  0  0  0  0  0
   -3.6840    1.1170   -0.0080 C   0  0  0  0  0  0  0  0  0  0  0  0
   -4.8650    0.8740   -0.0100 O   0  0  0  0  0  0  0  0  0  0  0  0
   -3.2590    2.5780   -0.0070 C   0  0  0  0  0  0  0  0  0  0  0  0
   -3.6470    3.0630    0.8690 H   0  0  0  0  0  0  0  0  0  0  0  0
   -3.6470    3.0650   -0.8810 H   0  0  0  0  0  0  0  0  0  0  0  0
   -1.4260    2.8780   -0.0060 S   0  0  0  0  0  0  0  0  0  0  0  0
   -0.6420    1.2560   -0.0030 C   0  0  0  0  0  0  0  0  0  0  0  0
    0.7380    1.2190    0.0000 C   0  0  0  0  0  0  0  0  0  0  0  0
    1.3020    2.1370    0.0010 H   0  0  0  0  0  0  0  0  0  0  0  0
  1  2  1  0  0  0  0
  2  3  2  0  0  0  0
  2  4  1  0  0  0  0
  4  5  1  0  0  0  0
  4 19  2  0  0  0  0
  5  6  1  0  0  0  0
  5  7  2  0  0  0  0
  7  8  1  0  0  0  0
  7  9  1  0  0  0  0
  9 10  1  0  0  0  0
  9 18  2  0  0  0  0
 10 11  1  0  0  0  0
 10 12  1  0  0  0  0
 12 13  2  0  0  0  0
 12 14  1  0  0  0  0
 14 15  1  0  0  0  0
 14 16  1  0  0  0  0
 14 17  1  0  0  0  0
 17 18  1  0  0  0  0
 18 19  1  0  0  0  0
 19 20  1  0  0  0  0
M  CHG  1   1  -1
M  END
>  <Catalog ID>
Z1508957209

>  <a_acc>
1

>  <a_don>
1

>  <a_heavy>
14

>  <logP>
1.1440001

>  <logS>
-2.9870601

>  <TPSA>
69.230003

>  <Weight>
208.217

$$$$
Z228584328
  MOE2024           3D

 22 23  0  0  0  0  0  0  0  0999 V2000
   -0.6320   -7.9100    0.6670 O   0  5  0  0  0  0  0  0  0  0  0  0
   -1.1160   -7.1220   -0.1480 C   0  0  0  0  0  0  0  0  0  0  0  0
   -1.6040   -7.4780   -1.2240 O   0  0  0  0  0  0  0  0  0  0  0  0
   -1.0950   -5.6520    0.1660 C   0  0  0  0  0  0  0  0  0  0  0  0
   -0.8020   -5.5220    1.1900 H   0  0  0  0  0  0  0  0  0  0  0  0
   -2.0900   -5.2760    0.0350 H   0  0  0  0  0  0  0  0  0  0  0  0
   -0.1130   -4.9280   -0.7640 C   0  0  0  0  0  0  0  0  0  0  0  0
   -0.3900   -5.1100   -1.7880 H   0  0  0  0  0  0  0  0  0  0  0  0
    0.8730   -5.3310   -0.6130 H   0  0  0  0  0  0  0  0  0  0  0  0
   -0.0810   -3.4310   -0.5160 C   0  0  0  0  0  0  0  0  0  0  0  0
    0.8690   -2.7260   -0.0480 N   0  0  0  0  0  0  0  0  0  0  0  0
    0.5270   -1.3790    0.0300 C   0  0  0  0  0  0  0  0  0  0  0  0
    1.3480   -0.3670    0.5030 C   0  0  0  0  0  0  0  0  0  0  0  0
    2.3380   -0.5980    0.8480 H   0  0  0  0  0  0  0  0  0  0  0  0
    0.8630    0.9280    0.5160 C   0  0  0  0  0  0  0  0  0  0  0  0
    1.8860    2.2130    1.1080 Cl  0  0  0  0  0  0  0  0  0  0  0  0
   -0.4180    1.2450    0.0730 C   0  0  0  0  0  0  0  0  0  0  0  0
   -0.7510    2.2680    0.1020 H   0  0  0  0  0  0  0  0  0  0  0  0
   -1.2470    0.2410   -0.4010 C   0  0  0  0  0  0  0  0  0  0  0  0
   -2.2430    0.4430   -0.7530 H   0  0  0  0  0  0  0  0  0  0  0  0
   -0.7430   -1.0480   -0.4070 C   0  0  0  0  0  0  0  0  0  0  0  0
   -1.5300   -2.5190   -0.9380 S   0  0  0  0  0  0  0  0  0  0  0  0
  1  2  1  0  0  0  0
  2  3  2  0  0  0  0
  2  4  1  0  0  0  0
  4  5  1  0  0  0  0
  4  6  1  0  0  0  0
  4  7  1  0  0  0  0
  7  8  1  0  0  0  0
  7  9  1  0  0  0  0
  7 10  1  0  0  0  0
 10 11  2  0  0  0  0
 10 22  1  0  0  0  0
 11 12  1  0  0  0  0
 12 13  1  0  0  0  0
 12 21  2  0  0  0  0
 13 14  1  0  0  0  0
 13 15  2  0  0  0  0
 15 16  1  0  0  0  0
 15 17  1  0  0  0  0
 17 18  1  0  0  0  0
 17 19  2  0  0  0  0
 19 20  1  0  0  0  0
 19 21  1  0  0  0  0
 21 22  1  0  0  0  0
M  CHG  1   1  -1
M  END
>  <Catalog ID>
Z228584328

>  <a_acc>
1

>  <a_don>
0

>  <a_heavy>
15

>  <logP>
2.803

>  <logS>
-2.80934

>  <TPSA>
53.02

>  <Weight>
240.69

$$$$
Z1201621962
  MOE2024           3D

 23 24  0  0  0  0  0  0  0  0999 V2000
    3.3780    1.1830    0.0030 O   0  5  0  0  0  0  0  0  0  0  0  0
    2.8300    0.0670    0.0040 C   0  0  0  0  0  0  0  0  0  0  0  0
    3.5430   -0.9520    0.0020 O   0  0  0  0  0  0  0  0  0  0  0  0
    1.3870   -0.0450    0.0090 C   0  0  0  0  0  0  0  0  0  0  0  0
    0.7270   -1.2630    0.0110 C   0  0  0  0  0  0  0  0  0  0  0  0
    1.2990   -2.1770    0.0090 H   0  0  0  0  0  0  0  0  0  0  0  0
   -0.6490   -1.2620    0.0140 C   0  0  0  0  0  0  0  0  0  0  0  0
   -1.1380   -2.2120    0.0150 H   0  0  0  0  0  0  0  0  0  0  0  0
   -1.3750   -0.0670    0.0160 C   0  0  0  0  0  0  0  0  0  0  0  0
   -0.7330    1.1080    0.0140 N   0  0  0  0  0  0  0  0  0  0  0  0
    0.5900    1.0920    0.0110 C   0  0  0  0  0  0  0  0  0  0  0  0
    1.0910    2.0470    0.0090 H   0  0  0  0  0  0  0  0  0  0  0  0
   -2.8410   -0.0420    0.0180 C   0  0  0  0  0  0  0  0  0  0  0  0
   -3.5390    1.1730    0.0150 C   0  0  0  0  0  0  0  0  0  0  0  0
   -2.9900    2.0990    0.0120 H   0  0  0  0  0  0  0  0  0  0  0  0
   -4.9200    1.2360    0.0160 C   0  0  0  0  0  0  0  0  0  0  0  0
   -5.4130    2.1930    0.0140 H   0  0  0  0  0  0  0  0  0  0  0  0
   -5.6660    0.0740    0.0210 C   0  0  0  0  0  0  0  0  0  0  0  0
   -6.7410    0.1190    0.0220 H   0  0  0  0  0  0  0  0  0  0  0  0
   -5.0170   -1.1440    0.0240 C   0  0  0  0  0  0  0  0  0  0  0  0
   -5.5910   -2.0540    0.0280 H   0  0  0  0  0  0  0  0  0  0  0  0
   -3.6340   -1.1980    0.0230 C   0  0  0  0  0  0  0  0  0  0  0  0
   -3.1880   -2.1710    0.0260 H   0  0  0  0  0  0  0  0  0  0  0  0
  1  2  1  0  0  0  0
  2  3  2  0  0  0  0
  2  4  1  0  0  0  0
  4  5  1  0  0  0  0
  4 11  2  0  0  0  0
  5  6  1  0  0  0  0
  5  7  2  0  0  0  0
  7  8  1  0  0  0  0
  7  9  1  0  0  0  0
  9 10  2  0  0  0  0
  9 13  1  0  0  0  0
 10 11  1  0  0  0  0
 11 12  1  0  0  0  0
 13 14  1  0  0  0  0
 13 22  2  0  0  0  0
 14 15  1  0  0  0  0
 14 16  2  0  0  0  0
 16 17  1  0  0  0  0
 16 18  1  0  0  0  0
 18 19  1  0  0  0  0
 18 20  2  0  0  0  0
 20 21  1  0  0  0  0
 20 22  1  0  0  0  0
 22 23  1  0  0  0  0
M  CHG  1   1  -1
M  END
>  <Catalog ID>
Z1201621962

>  <a_acc>
1

>  <a_don>
0

>  <a_heavy>
15

>  <logP>
2.392

>  <logS>
-2.75177

>  <TPSA>
53.02

>  <Weight>
198.20099

$$$$
Z104502228
  MOE2024           3D

 17 17  0  0  0  0  0  0  0  0999 V2000
    3.6200   -1.0960   -0.3710 N   0  0  0  0  0  0  0  0  0  0  0  0
    4.6370   -1.0140   -0.3750 H   0  0  0  0  0  0  0  0  0  0  0  0
    3.2240   -1.9260   -0.8080 H   0  0  0  0  0  0  0  0  0  0  0  0
    2.8910   -0.0260    0.0240 C   0  0  0  0  0  0  0  0  0  0  0  0
    3.5260    0.9460    0.3700 O   0  0  0  0  0  0  0  0  0  0  0  0
    1.4380   -0.0290    0.0180 C   0  0  0  0  0  0  0  0  0  0  0  0
    0.6970   -1.2160    0.0310 C   0  0  0  0  0  0  0  0  0  0  0  0
    1.2060   -2.1620    0.0640 H   0  0  0  0  0  0  0  0  0  0  0  0
   -0.6850   -1.2050    0.0140 C   0  0  0  0  0  0  0  0  0  0  0  0
   -1.2460   -2.1230    0.0240 H   0  0  0  0  0  0  0  0  0  0  0  0
   -1.3640   -0.0010   -0.0130 C   0  0  0  0  0  0  0  0  0  0  0  0
   -2.7010   -0.0020   -0.0300 O   0  0  0  0  0  0  0  0  0  0  0  0
   -3.0950    0.8880   -0.0410 H   0  0  0  0  0  0  0  0  0  0  0  0
   -0.6620    1.1930   -0.0180 C   0  0  0  0  0  0  0  0  0  0  0  0
   -1.1820    2.1330   -0.0340 H   0  0  0  0  0  0  0  0  0  0  0  0
    0.7200    1.1700   -0.0020 C   0  0  0  0  0  0  0  0  0  0  0  0
    1.2670    2.0990   -0.0040 H   0  0  0  0  0  0  0  0  0  0  0  0
  1  2  1  0  0  0  0
  1  3  1  0  0  0  0
  1  4  1  0  0  0  0
  4  5  2  0  0  0  0
  4  6  1  0  0  0  0
  6  7  1  0  0  0  0
  6 16  2  0  0  0  0
  7  8  1  0  0  0  0
  7  9  2  0  0  0  0
  9 10  1  0  0  0  0
  9 11  1  0  0  0  0
 11 12  1  0  0  0  0
 11 14  2  0  0  0  0
 12 13  1  0  0  0  0
 14 15  1  0  0  0  0
 14 16  1  0  0  0  0
 16 17  1  0  0  0  0
M  END
>  <Catalog ID>
Z104502228

>  <a_acc>
2

>  <a_don>
2

>  <a_heavy>
10

>  <logP>
0.54100001

>  <logS>
-1.27505

>  <TPSA>
63.32

>  <Weight>
137.138

$$$$
Z104472798
  MOE2024           3D

 10 10  0  0  0  0  0  0  0  0999 V2000
    2.5880    0.1060    0.0020 N   0  0  0  0  0  0  0  0  0  0  0  0
    3.1590   -0.7390    0.0000 H   0  0  0  0  0  0  0  0  0  0  0  0
    3.0650    1.0070    0.0020 H   0  0  0  0  0  0  0  0  0  0  0  0
    1.2340    0.0710    0.0040 C   0  0  0  0  0  0  0  0  0  0  0  0
    0.4450    1.0780    0.0060 N   0  0  0  0  0  0  0  0  0  0  0  0
   -0.8750    0.6630    0.0090 C   0  0  0  0  0  0  0  0  0  0  0  0
   -1.6340    1.4270    0.0110 H   0  0  0  0  0  0  0  0  0  0  0  0
   -1.1090   -0.6580    0.0090 C   0  0  0  0  0  0  0  0  0  0  0  0
   -2.0060   -1.2480    0.0100 H   0  0  0  0  0  0  0  0  0  0  0  0
    0.4240   -1.4870    0.0050 S   0  0  0  0  0  0  0  0  0  0  0  0
  1  2  1  0  0  0  0
  1  3  1  0  0  0  0
  1  4  1  0  0  0  0
  4  5  2  0  0  0  0
  4 10  1  0  0  0  0
  5  6  1  0  0  0  0
  6  7  1  0  0  0  0
  6  8  2  0  0  0  0
  8  9  1  0  0  0  0
  8 10  1  0  0  0  0
M  END
>  <Catalog ID>
Z104472798

>  <a_acc>
1

>  <a_don>
1

>  <a_heavy>
6

>  <logP>
0.215

>  <logS>
-0.57713002

>  <TPSA>
38.91

>  <Weight>
100.145

$$$$
Z203045032
  MOE2024           3D

 16 16  0  0  0  0  0  0  0  0999 V2000
    2.9340   -0.0010   -0.0010 C   0  0  0  0  0  0  0  0  0  0  0  0
    3.2950   -1.0130   -0.0060 H   0  0  0  0  0  0  0  0  0  0  0  0
    3.3120    0.4940    0.8760 H   0  0  0  0  0  0  0  0  0  0  0  0
    3.3090    0.5030   -0.8740 H   0  0  0  0  0  0  0  0  0  0  0  0
    1.4170    0.0320    0.0010 C   0  0  0  0  0  0  0  0  0  0  0  0
    0.6530   -1.1190   -0.0470 C   0  0  0  0  0  0  0  0  0  0  0  0
    1.1190   -2.0860   -0.0880 H   0  0  0  0  0  0  0  0  0  0  0  0
   -0.7280   -1.0200   -0.0400 C   0  0  0  0  0  0  0  0  0  0  0  0
   -1.3080   -1.9260   -0.0760 H   0  0  0  0  0  0  0  0  0  0  0  0
   -1.4070    0.1150    0.0080 N   0  0  0  0  0  0  0  0  0  0  0  0
   -0.6700    1.2070    0.0560 C   0  0  0  0  0  0  0  0  0  0  0  0
   -1.3860    2.3570    0.0920 N   0  0  0  0  0  0  0  0  0  0  0  0
   -1.0700    3.1010   -0.5270 H   0  0  0  0  0  0  0  0  0  0  0  0
   -2.3850    2.1680   -0.0040 H   0  0  0  0  0  0  0  0  0  0  0  0
    0.7210    1.2180    0.0550 C   0  0  0  0  0  0  0  0  0  0  0  0
    1.2340    2.1590    0.1010 H   0  0  0  0  0  0  0  0  0  0  0  0
  1  2  1  0  0  0  0
  1  3  1  0  0  0  0
  1  4  1  0  0  0  0
  1  5  1  0  0  0  0
  5  6  1  0  0  0  0
  5 15  2  0  0  0  0
  6  7  1  0  0  0  0
  6  8  2  0  0  0  0
  8  9  1  0  0  0  0
  8 10  1  0  0  0  0
 10 11  2  0  0  0  0
 11 12  1  0  0  0  0
 11 15  1  0  0  0  0
 12 13  1  0  0  0  0
 12 14  1  0  0  0  0
 15 16  1  0  0  0  0
M  END
>  <Catalog ID>
Z203045032

>  <a_acc>
1

>  <a_don>
1

>  <a_heavy>
8

>  <logP>
0.74199998

>  <logS>
-0.63279998

>  <TPSA>
38.91

>  <Weight>
108.144

$$$$
Z104474598
  MOE2024           3D

 17 17  0  0  0  0  0  0  0  0999 V2000
    3.5460   -1.1380    0.0050 C   0  0  0  0  0  0  0  0  0  0  0  0
    4.5790   -0.8400    0.0070 H   0  0  0  0  0  0  0  0  0  0  0  0
    3.3310   -1.7060   -0.8820 H   0  0  0  0  0  0  0  0  0  0  0  0
    3.3280   -1.7060    0.8920 H   0  0  0  0  0  0  0  0  0  0  0  0
    2.7550    0.0300    0.0040 O   0  0  0  0  0  0  0  0  0  0  0  0
    1.3980   -0.0450    0.0020 C   0  0  0  0  0  0  0  0  0  0  0  0
    0.6880   -1.2440    0.0010 C   0  0  0  0  0  0  0  0  0  0  0  0
    1.1890   -2.1930    0.0000 H   0  0  0  0  0  0  0  0  0  0  0  0
   -0.6970   -1.2270   -0.0010 C   0  0  0  0  0  0  0  0  0  0  0  0
   -1.2580   -2.1440   -0.0020 H   0  0  0  0  0  0  0  0  0  0  0  0
   -1.3720   -0.0190   -0.0010 C   0  0  0  0  0  0  0  0  0  0  0  0
   -2.7140   -0.0190   -0.0020 O   0  0  0  0  0  0  0  0  0  0  0  0
   -3.0900    0.8780   -0.0020 H   0  0  0  0  0  0  0  0  0  0  0  0
   -0.6750    1.1790    0.0010 C   0  0  0  0  0  0  0  0  0  0  0  0
   -1.1960    2.1180    0.0010 H   0  0  0  0  0  0  0  0  0  0  0  0
    0.7090    1.1590    0.0030 C   0  0  0  0  0  0  0  0  0  0  0  0
    1.2680    2.0780    0.0040 H   0  0  0  0  0  0  0  0  0  0  0  0
  1  2  1  0  0  0  0
  1  3  1  0  0  0  0
  1  4  1  0  0  0  0
  1  5  1  0  0  0  0
  5  6  1  0  0  0  0
  6  7  1  0  0  0  0
  6 16  2  0  0  0  0
  7  8  1  0  0  0  0
  7  9  2  0  0  0  0
  9 10  1  0  0  0  0
  9 11  1  0  0  0  0
 11 12  1  0  0  0  0
 11 14  2  0  0  0  0
 12 13  1  0  0  0  0
 14 15  1  0  0  0  0
 14 16  1  0  0  0  0
 16 17  1  0  0  0  0
M  END
>  <Catalog ID>
Z104474598

>  <a_acc>
2

>  <a_don>
1

>  <a_heavy>
9

>  <logP>
1.554

>  <logS>
-1.07331

>  <TPSA>
29.459999

>  <Weight>
124.139

$$$$
Z33546516
  MOE2024           3D

 22 22  0  0  0  0  0  0  0  0999 V2000
    3.5190   -0.7930   -0.7100 N   0  0  0  0  0  0  0  0  0  0  0  0
    4.5260   -0.9300   -0.7870 H   0  0  0  0  0  0  0  0  0  0  0  0
    2.9570   -0.9990   -1.5340 H   0  0  0  0  0  0  0  0  0  0  0  0
    3.0020   -0.3540    0.4540 C   0  0  0  0  0  0  0  0  0  0  0  0
    3.7310   -0.1310    1.3850 O   0  0  0  0  0  0  0  0  0  0  0  0
    1.4960   -0.1410    0.5940 C   0  0  0  0  0  0  0  0  0  0  0  0
    1.3210    0.1960    1.6010 H   0  0  0  0  0  0  0  0  0  0  0  0
    0.7100   -1.4530    0.3960 C   0  0  0  0  0  0  0  0  0  0  0  0
    1.0390   -2.1780    1.1210 H   0  0  0  0  0  0  0  0  0  0  0  0
    0.9110   -1.8530   -0.5830 H   0  0  0  0  0  0  0  0  0  0  0  0
   -0.8010   -1.2330    0.5450 C   0  0  0  0  0  0  0  0  0  0  0  0
   -1.0210   -0.9420    1.5580 H   0  0  0  0  0  0  0  0  0  0  0  0
   -1.3220   -2.1540    0.3470 H   0  0  0  0  0  0  0  0  0  0  0  0
   -1.3000   -0.1440   -0.4140 C   0  0  0  0  0  0  0  0  0  0  0  0
   -2.3510    0.0260   -0.2490 H   0  0  0  0  0  0  0  0  0  0  0  0
   -1.1770   -0.4780   -1.4300 H   0  0  0  0  0  0  0  0  0  0  0  0
   -0.5310    1.1680   -0.2120 C   0  0  0  0  0  0  0  0  0  0  0  0
   -0.7410    1.5560    0.7700 H   0  0  0  0  0  0  0  0  0  0  0  0
   -0.8660    1.8960   -0.9320 H   0  0  0  0  0  0  0  0  0  0  0  0
    0.9820    0.9550   -0.3610 C   0  0  0  0  0  0  0  0  0  0  0  0
    1.1980    0.6810   -1.3790 H   0  0  0  0  0  0  0  0  0  0  0  0
    1.4950    1.8780   -0.1530 H   0  0  0  0  0  0  0  0  0  0  0  0
  1  2  1  0  0  0  0
  1  3  1  0  0  0  0
  1  4  1  0  0  0  0
  4  5  2  0  0  0  0
  4  6  1  0  0  0  0
  6  7  1  0  0  0  0
  6  8  1  0  0  0  0
  6 20  1  0  0  0  0
  8  9  1  0  0  0  0
  8 10  1  0  0  0  0
  8 11  1  0  0  0  0
 11 12  1  0  0  0  0
 11 13  1  0  0  0  0
 11 14  1  0  0  0  0
 14 15  1  0  0  0  0
 14 16  1  0  0  0  0
 14 17  1  0  0  0  0
 17 18  1  0  0  0  0
 17 19  1  0  0  0  0
 17 20  1  0  0  0  0
 20 21  1  0  0  0  0
 20 22  1  0  0  0  0
M  END
>  <Catalog ID>
Z33546516

>  <a_acc>
1

>  <a_don>
1

>  <a_heavy>
9

>  <logP>
0.86400002

>  <logS>
-1.7236201

>  <TPSA>
43.09

>  <Weight>
127.187

$$$$
Z104495736
  MOE2024           3D

 18 18  0  0  0  0  0  0  0  0999 V2000
    2.7870   -0.0400    0.4210 N   0  0  0  0  0  0  0  0  0  0  0  0
    3.2790    0.7590   -0.0040 H   0  0  0  0  0  0  0  0  0  0  0  0
    3.2530   -0.9210    0.1970 H   0  0  0  0  0  0  0  0  0  0  0  0
    1.4200   -0.0090    0.2130 C   0  0  0  0  0  0  0  0  0  0  0  0
    0.6920   -1.1910    0.2430 C   0  0  0  0  0  0  0  0  0  0  0  0
    1.1960   -2.1160    0.4530 H   0  0  0  0  0  0  0  0  0  0  0  0
   -0.6700   -1.1870    0.0070 C   0  0  0  0  0  0  0  0  0  0  0  0
   -1.2250   -2.1080    0.0300 H   0  0  0  0  0  0  0  0  0  0  0  0
   -1.3190    0.0060   -0.2590 C   0  0  0  0  0  0  0  0  0  0  0  0
   -2.3790    0.0120   -0.4440 H   0  0  0  0  0  0  0  0  0  0  0  0
   -0.6030    1.1910   -0.2820 C   0  0  0  0  0  0  0  0  0  0  0  0
   -1.1220    2.1120   -0.4850 H   0  0  0  0  0  0  0  0  0  0  0  0
    0.7630    1.1940   -0.0440 C   0  0  0  0  0  0  0  0  0  0  0  0
    1.5270    2.5080   -0.0540 C   0  0  0  0  0  0  0  0  0  0  0  0
    2.1300    2.6140    0.8320 H   0  0  0  0  0  0  0  0  0  0  0  0
    0.8590    3.3480   -0.1310 H   0  0  0  0  0  0  0  0  0  0  0  0
    2.3620    2.5180   -1.1580 O   0  0  0  0  0  0  0  0  0  0  0  0
    1.8880    2.1000   -1.9040 H   0  0  0  0  0  0  0  0  0  0  0  0
  1  2  1  0  0  0  0
  1  3  1  0  0  0  0
  1  4  1  0  0  0  0
  4  5  1  0  0  0  0
  4 13  2  0  0  0  0
  5  6  1  0  0  0  0
  5  7  2  0  0  0  0
  7  8  1  0  0  0  0
  7  9  1  0  0  0  0
  9 10  1  0  0  0  0
  9 11  2  0  0  0  0
 11 12  1  0  0  0  0
 11 13  1  0  0  0  0
 13 14  1  0  0  0  0
 14 15  1  0  0  0  0
 14 16  1  0  0  0  0
 14 17  1  0  0  0  0
 17 18  1  0  0  0  0
M  END
>  <Catalog ID>
Z104495736

>  <a_acc>
1

>  <a_don>
2

>  <a_heavy>
9

>  <logP>
0.70999998

>  <logS>
-0.87677997

>  <TPSA>
46.25

>  <Weight>
123.155

$$$$
Z804943488
  MOE2024           3D

 16 16  0  0  0  0  0  0  0  0999 V2000
    3.9230    2.3930    0.0070 C   0  0  0  0  0  0  0  0  0  0  0  0
    4.3830    3.3670    0.0090 H   0  0  0  0  0  0  0  0  0  0  0  0
    3.4210    1.3150    0.0040 C   0  0  0  0  0  0  0  0  0  0  0  0
    2.7910   -0.0400    0.0000 C   0  0  0  0  0  0  0  0  0  0  0  0
    3.1100   -0.5880    0.8690 H   0  0  0  0  0  0  0  0  0  0  0  0
    3.1090   -0.5820   -0.8740 H   0  0  0  0  0  0  0  0  0  0  0  0
    1.3150    0.0470    0.0020 N   0  0  0  0  0  0  0  0  0  0  0  0
    0.5210    1.2800    0.0000 C   0  0  0  0  0  0  0  0  0  0  0  0
    0.7180    1.8620   -0.8840 H   0  0  0  0  0  0  0  0  0  0  0  0
    0.7180    1.8650    0.8820 H   0  0  0  0  0  0  0  0  0  0  0  0
   -0.9130    0.7350    0.0020 C   0  0  0  0  0  0  0  0  0  0  0  0
   -1.4530    1.0300   -0.8810 H   0  0  0  0  0  0  0  0  0  0  0  0
   -1.4500    1.0300    0.8850 H   0  0  0  0  0  0  0  0  0  0  0  0
   -0.7770   -0.6740    0.0020 O   0  0  0  0  0  0  0  0  0  0  0  0
    0.5010   -1.0250    0.0020 C   0  0  0  0  0  0  0  0  0  0  0  0
    0.8530   -2.1840    0.0030 O   0  0  0  0  0  0  0  0  0  0  0  0
  1  2  1  0  0  0  0
  1  3  3  0  0  0  0
  3  4  1  0  0  0  0
  4  5  1  0  0  0  0
  4  6  1  0  0  0  0
  4  7  1  0  0  0  0
  7  8  1  0  0  0  0
  7 15  1  0  0  0  0
  8  9  1  0  0  0  0
  8 10  1  0  0  0  0
  8 11  1  0  0  0  0
 11 12  1  0  0  0  0
 11 13  1  0  0  0  0
 11 14  1  0  0  0  0
 14 15  1  0  0  0  0
 15 16  2  0  0  0  0
M  END
>  <Catalog ID>
Z804943488

>  <a_acc>
1

>  <a_don>
0

>  <a_heavy>
9

>  <logP>
-0.02

>  <logS>
-0.80142999

>  <TPSA>
29.540001

>  <Weight>
125.127

$$$$
Z57376600
  MOE2024           3D

 16 16  0  0  0  0  0  0  0  0999 V2000
    2.7740   -0.1800   -0.0360 C   0  0  0  0  0  0  0  0  0  0  0  0
    3.1000   -1.2040   -0.0820 H   0  0  0  0  0  0  0  0  0  0  0  0
    3.1770    0.2680    0.8530 H   0  0  0  0  0  0  0  0  0  0  0  0
    3.1510    0.3370   -0.8990 H   0  0  0  0  0  0  0  0  0  0  0  0
    1.2590   -0.1080   -0.0080 C   0  0  0  0  0  0  0  0  0  0  0  0
    0.6180   -1.2690    0.0010 N   0  0  0  0  0  0  0  0  0  0  0  0
   -0.7010   -1.2000    0.0310 C   0  0  0  0  0  0  0  0  0  0  0  0
   -1.3160   -2.4070    0.0310 N   0  0  0  0  0  0  0  0  0  0  0  0
   -2.0900   -2.5140   -0.6220 H   0  0  0  0  0  0  0  0  0  0  0  0
   -0.6320   -3.1610   -0.0590 H   0  0  0  0  0  0  0  0  0  0  0  0
   -1.4330   -0.0150    0.0470 C   0  0  0  0  0  0  0  0  0  0  0  0
   -2.5050   -0.0600    0.0750 H   0  0  0  0  0  0  0  0  0  0  0  0
   -0.7740    1.1930    0.0350 C   0  0  0  0  0  0  0  0  0  0  0  0
   -1.2870    2.1380    0.0480 H   0  0  0  0  0  0  0  0  0  0  0  0
    0.6020    1.1160    0.0070 C   0  0  0  0  0  0  0  0  0  0  0  0
    1.5970    2.7730   -0.0080 Br  0  0  0  0  0  0  0  0  0  0  0  0
  1  2  1  0  0  0  0
  1  3  1  0  0  0  0
  1  4  1  0  0  0  0
  1  5  1  0  0  0  0
  5  6  1  0  0  0  0
  5 15  2  0  0  0  0
  6  7  2  0  0  0  0
  7  8  1  0  0  0  0
  7 11  1  0  0  0  0
  8  9  1  0  0  0  0
  8 10  1  0  0  0  0
 11 12  1  0  0  0  0
 11 13  2  0  0  0  0
 13 14  1  0  0  0  0
 13 15  1  0  0  0  0
 15 16  1  0  0  0  0
M  END
>  <Catalog ID>
Z57376600

>  <a_acc>
1

>  <a_don>
1

>  <a_heavy>
9

>  <logP>
1.462

>  <logS>
-1.56266

>  <TPSA>
38.91

>  <Weight>
187.03999

$$$$
Z104477476
  MOE2024           3D

 21 21  0  0  0  0  0  0  0  0999 V2000
    3.5520   -1.1070    0.0230 C   0  0  0  0  0  0  0  0  0  0  0  0
    4.5880   -0.8240    0.0680 H   0  0  0  0  0  0  0  0  0  0  0  0
    3.3660   -1.6670   -0.8760 H   0  0  0  0  0  0  0  0  0  0  0  0
    3.2920   -1.6790    0.8960 H   0  0  0  0  0  0  0  0  0  0  0  0
    2.7770    0.0700   -0.0010 O   0  0  0  0  0  0  0  0  0  0  0  0
    1.4090    0.0100    0.0050 C   0  0  0  0  0  0  0  0  0  0  0  0
    0.7000   -1.1830   -0.0910 C   0  0  0  0  0  0  0  0  0  0  0  0
    1.2010   -2.1280   -0.1680 H   0  0  0  0  0  0  0  0  0  0  0  0
   -0.6860   -1.1730   -0.0930 C   0  0  0  0  0  0  0  0  0  0  0  0
   -1.2210   -2.1040   -0.1680 H   0  0  0  0  0  0  0  0  0  0  0  0
   -1.3790    0.0230    0.0020 C   0  0  0  0  0  0  0  0  0  0  0  0
   -2.8960    0.0460    0.0040 C   0  0  0  0  0  0  0  0  0  0  0  0
   -3.2980   -0.9510   -0.0220 H   0  0  0  0  0  0  0  0  0  0  0  0
   -3.2540    0.5840   -0.8560 H   0  0  0  0  0  0  0  0  0  0  0  0
   -3.2520    0.5350    0.8930 H   0  0  0  0  0  0  0  0  0  0  0  0
   -0.6730    1.2100    0.0990 C   0  0  0  0  0  0  0  0  0  0  0  0
   -1.1980    2.1440    0.1810 H   0  0  0  0  0  0  0  0  0  0  0  0
    0.7130    1.2200    0.1020 C   0  0  0  0  0  0  0  0  0  0  0  0
    1.3920    2.4290    0.1940 N   0  0  0  0  0  0  0  0  0  0  0  0
    1.0680    3.1450   -0.4580 H   0  0  0  0  0  0  0  0  0  0  0  0
    2.4030    2.2840    0.0980 H   0  0  0  0  0  0  0  0  0  0  0  0
  1  2  1  0  0  0  0
  1  3  1  0  0  0  0
  1  4  1  0  0  0  0
  1  5  1  0  0  0  0
  5  6  1  0  0  0  0
  6  7  1  0  0  0  0
  6 18  2  0  0  0  0
  7  8  1  0  0  0  0
  7  9  2  0  0  0  0
  9 10  1  0  0  0  0
  9 11  1  0  0  0  0
 11 12  1  0  0  0  0
 11 16  2  0  0  0  0
 12 13  1  0  0  0  0
 12 14  1  0  0  0  0
 12 15  1  0  0  0  0
 16 17  1  0  0  0  0
 16 18  1  0  0  0  0
 18 19  1  0  0  0  0
 19 20  1  0  0  0  0
 19 21  1  0  0  0  0
M  END
>  <Catalog ID>
Z104477476

>  <a_acc>
1

>  <a_don>
1

>  <a_heavy>
10

>  <logP>
1.523

>  <logS>
-1.63006

>  <TPSA>
35.25

>  <Weight>
137.18199

$$$$
Z90120144
  MOE2024           3D

 17 17  0  0  0  0  0  0  0  0999 V2000
    4.1710   -2.3100   -0.0240 N   0  0  0  0  0  0  0  0  0  0  0  0
    3.6360   -1.3060   -0.0160 C   0  0  0  0  0  0  0  0  0  0  0  0
    2.9440    0.0160   -0.0060 C   0  0  0  0  0  0  0  0  0  0  0  0
    3.2700    0.5630   -0.8710 H   0  0  0  0  0  0  0  0  0  0  0  0
    3.2730    0.5520    0.8650 H   0  0  0  0  0  0  0  0  0  0  0  0
    1.4150   -0.0380   -0.0030 C   0  0  0  0  0  0  0  0  0  0  0  0
    0.6910   -1.2290   -0.0020 C   0  0  0  0  0  0  0  0  0  0  0  0
    1.1850   -2.1860   -0.0020 H   0  0  0  0  0  0  0  0  0  0  0  0
   -0.6930   -1.2120    0.0010 C   0  0  0  0  0  0  0  0  0  0  0  0
   -1.2370   -2.1380    0.0020 H   0  0  0  0  0  0  0  0  0  0  0  0
   -1.3650   -0.0020    0.0020 C   0  0  0  0  0  0  0  0  0  0  0  0
   -2.7050    0.0300    0.0040 O   0  0  0  0  0  0  0  0  0  0  0  0
   -3.1090   -0.8550    0.0050 H   0  0  0  0  0  0  0  0  0  0  0  0
   -0.6610    1.1880    0.0000 C   0  0  0  0  0  0  0  0  0  0  0  0
   -1.1990    2.1190    0.0010 H   0  0  0  0  0  0  0  0  0  0  0  0
    0.7230    1.1670   -0.0020 C   0  0  0  0  0  0  0  0  0  0  0  0
    1.2550    2.1020   -0.0030 H   0  0  0  0  0  0  0  0  0  0  0  0
  1  2  3  0  0  0  0
  2  3  1  0  0  0  0
  3  4  1  0  0  0  0
  3  5  1  0  0  0  0
  3  6  1  0  0  0  0
  6  7  1  0  0  0  0
  6 16  2  0  0  0  0
  7  8  1  0  0  0  0
  7  9  2  0  0  0  0
  9 10  1  0  0  0  0
  9 11  1  0  0  0  0
 11 12  1  0  0  0  0
 11 14  2  0  0  0  0
 12 13  1  0  0  0  0
 14 15  1  0  0  0  0
 14 16  1  0  0  0  0
 16 17  1  0  0  0  0
M  END
>  <Catalog ID>
Z90120144

>  <a_acc>
2

>  <a_don>
1

>  <a_heavy>
10

>  <logP>
1.346

>  <logS>
-1.43533

>  <TPSA>
44.02

>  <Weight>
133.14999

$$$$
Z218760918
  MOE2024           3D

 16 17  0  0  0  0  0  0  0  0999 V2000
   -2.4490   -3.0850   -0.2060 N   0  0  0  0  0  0  0  0  0  0  0  0
   -3.0870   -2.6270    0.4460 H   0  0  0  0  0  0  0  0  0  0  0  0
   -2.4470   -4.0970   -0.0600 H   0  0  0  0  0  0  0  0  0  0  0  0
   -1.1640   -2.5900   -0.1400 C   0  0  0  0  0  0  0  0  0  0  0  0
   -0.1370   -3.3500   -0.0940 N   0  0  0  0  0  0  0  0  0  0  0  0
    0.9230   -2.5560   -0.0140 O   0  0  0  0  0  0  0  0  0  0  0  0
    0.5540   -1.2810   -0.0080 C   0  0  0  0  0  0  0  0  0  0  0  0
    1.3400   -0.1370    0.0670 C   0  0  0  0  0  0  0  0  0  0  0  0
    2.4100   -0.2240    0.1320 H   0  0  0  0  0  0  0  0  0  0  0  0
    0.7060    1.0890    0.0530 C   0  0  0  0  0  0  0  0  0  0  0  0
    1.2810    1.9980    0.1090 H   0  0  0  0  0  0  0  0  0  0  0  0
   -0.6880    1.1630   -0.0360 C   0  0  0  0  0  0  0  0  0  0  0  0
   -1.1630    2.1290   -0.0480 H   0  0  0  0  0  0  0  0  0  0  0  0
   -1.4520    0.0150   -0.1100 C   0  0  0  0  0  0  0  0  0  0  0  0
   -2.5240    0.0580   -0.1840 H   0  0  0  0  0  0  0  0  0  0  0  0
   -0.8120   -1.2270   -0.0910 C   0  0  0  0  0  0  0  0  0  0  0  0
  1  2  1  0  0  0  0
  1  3  1  0  0  0  0
  1  4  1  0  0  0  0
  4  5  2  0  0  0  0
  4 16  1  0  0  0  0
  5  6  1  0  0  0  0
  6  7  1  0  0  0  0
  7  8  1  0  0  0  0
  7 16  2  0  0  0  0
  8  9  1  0  0  0  0
  8 10  2  0  0  0  0
 10 11  1  0  0  0  0
 10 12  1  0  0  0  0
 12 13  1  0  0  0  0
 12 14  2  0  0  0  0
 14 15  1  0  0  0  0
 14 16  1  0  0  0  0
M  END
>  <Catalog ID>
Z218760918

>  <a_acc>
1

>  <a_don>
1

>  <a_heavy>
10

>  <logP>
1.4

>  <logS>
-1.91005

>  <TPSA>
52.049999

>  <Weight>
134.138

$$$$
Z397587326
  MOE2024           3D

 19 19  0  0  0  0  0  0  0  0999 V2000
    4.8920   -1.0740    0.4380 O   0  0  0  0  0  0  0  0  0  0  0  0
    5.2860   -0.1990    0.6200 H   0  0  0  0  0  0  0  0  0  0  0  0
    3.5200   -1.0480    0.6240 C   0  0  0  0  0  0  0  0  0  0  0  0
    3.3150   -0.6980    1.6210 H   0  0  0  0  0  0  0  0  0  0  0  0
    3.1500   -2.0540    0.5190 H   0  0  0  0  0  0  0  0  0  0  0  0
    2.8870   -0.1320   -0.4240 C   0  0  0  0  0  0  0  0  0  0  0  0
    3.1100   -0.5080   -1.4070 H   0  0  0  0  0  0  0  0  0  0  0  0
    3.2960    0.8590   -0.3380 H   0  0  0  0  0  0  0  0  0  0  0  0
    1.3800   -0.0780   -0.2300 C   0  0  0  0  0  0  0  0  0  0  0  0
    0.5680   -1.0290   -0.8370 C   0  0  0  0  0  0  0  0  0  0  0  0
    1.0030   -1.8020   -1.4480 H   0  0  0  0  0  0  0  0  0  0  0  0
   -0.8050   -0.9910   -0.6610 C   0  0  0  0  0  0  0  0  0  0  0  0
   -1.4480   -1.7180   -1.1220 H   0  0  0  0  0  0  0  0  0  0  0  0
   -1.3420    0.0090    0.1260 C   0  0  0  0  0  0  0  0  0  0  0  0
   -2.6360    0.0500    0.2970 F   0  0  0  0  0  0  0  0  0  0  0  0
   -0.5580    0.9670    0.7400 C   0  0  0  0  0  0  0  0  0  0  0  0
   -1.0140    1.7300    1.3450 H   0  0  0  0  0  0  0  0  0  0  0  0
    0.8140    0.9170    0.5570 C   0  0  0  0  0  0  0  0  0  0  0  0
    1.4360    1.6570    1.0300 H   0  0  0  0  0  0  0  0  0  0  0  0
  1  2  1  0  0  0  0
  1  3  1  0  0  0  0
  3  4  1  0  0  0  0
  3  5  1  0  0  0  0
  3  6  1  0  0  0  0
  6  7  1  0  0  0  0
  6  8  1  0  0  0  0
  6  9  1  0  0  0  0
  9 10  1  0  0  0  0
  9 18  2  0  0  0  0
 10 11  1  0  0  0  0
 10 12  2  0  0  0  0
 12 13  1  0  0  0  0
 12 14  1  0  0  0  0
 14 15  1  0  0  0  0
 14 16  2  0  0  0  0
 16 17  1  0  0  0  0
 16 18  1  0  0  0  0
 18 19  1  0  0  0  0
M  END
>  <Catalog ID>
Z397587326

>  <a_acc>
1

>  <a_don>
1

>  <a_heavy>
10

>  <logP>
1.625

>  <logS>
-1.51235

>  <TPSA>
20.23

>  <Weight>
140.157

$$$$
Z57473020
  MOE2024           3D

 18 19  0  0  0  0  0  0  0  0999 V2000
   -1.3890   -4.7550   -0.0080 O   0  0  0  0  0  0  0  0  0  0  0  0
   -0.7270   -3.7340   -0.0060 C   0  0  0  0  0  0  0  0  0  0  0  0
    0.6990   -3.7260   -0.0030 C   0  0  0  0  0  0  0  0  0  0  0  0
    1.1740   -4.6890   -0.0040 H   0  0  0  0  0  0  0  0  0  0  0  0
    1.3960   -2.5630   -0.0010 C   0  0  0  0  0  0  0  0  0  0  0  0
    2.4710   -2.5450    0.0000 H   0  0  0  0  0  0  0  0  0  0  0  0
    0.7070   -1.3060   -0.0010 C   0  0  0  0  0  0  0  0  0  0  0  0
    1.3710   -0.0790    0.0010 C   0  0  0  0  0  0  0  0  0  0  0  0
    2.4460   -0.0630    0.0030 H   0  0  0  0  0  0  0  0  0  0  0  0
    0.6670    1.1070    0.0010 C   0  0  0  0  0  0  0  0  0  0  0  0
    1.1900    2.0480    0.0030 H   0  0  0  0  0  0  0  0  0  0  0  0
   -0.7220    1.0930    0.0000 C   0  0  0  0  0  0  0  0  0  0  0  0
   -1.2640    2.0230    0.0000 H   0  0  0  0  0  0  0  0  0  0  0  0
   -1.3980   -0.1080   -0.0020 C   0  0  0  0  0  0  0  0  0  0  0  0
   -2.4730   -0.1200   -0.0040 H   0  0  0  0  0  0  0  0  0  0  0  0
   -0.7000   -1.3130   -0.0030 C   0  0  0  0  0  0  0  0  0  0  0  0
   -1.3690   -2.5340   -0.0050 N   0  0  0  0  0  0  0  0  0  0  0  0
   -2.3860   -2.5830   -0.0070 H   0  0  0  0  0  0  0  0  0  0  0  0
  1  2  2  0  0  0  0
  2  3  1  0  0  0  0
  2 17  1  0  0  0  0
  3  4  1  0  0  0  0
  3  5  2  0  0  0  0
  5  6  1  0  0  0  0
  5  7  1  0  0  0  0
  7  8  1  0  0  0  0
  7 16  2  0  0  0  0
  8  9  1  0  0  0  0
  8 10  2  0  0  0  0
 10 11  1  0  0  0  0
 10 12  1  0  0  0  0
 12 13  1  0  0  0  0
 12 14  2  0  0  0  0
 14 15  1  0  0  0  0
 14 16  1  0  0  0  0
 16 17  1  0  0  0  0
 17 18  1  0  0  0  0
M  END
>  <Catalog ID>
Z57473020

>  <a_acc>
1

>  <a_don>
2

>  <a_heavy>
11

>  <logP>
1.533

>  <logS>
-2.2151899

>  <TPSA>
29.1

>  <Weight>
145.161

$$$$
Z56931884
  MOE2024           3D

 18 18  0  0  0  0  0  0  0  0999 V2000
    3.5500   -1.1270   -0.0020 C   0  0  0  0  0  0  0  0  0  0  0  0
    4.5830   -0.8300   -0.0030 H   0  0  0  0  0  0  0  0  0  0  0  0
    3.3310   -1.6970   -0.8870 H   0  0  0  0  0  0  0  0  0  0  0  0
    3.3320   -1.6930    0.8860 H   0  0  0  0  0  0  0  0  0  0  0  0
    2.7600    0.0400   -0.0040 O   0  0  0  0  0  0  0  0  0  0  0  0
    1.4060   -0.0290   -0.0020 C   0  0  0  0  0  0  0  0  0  0  0  0
    0.6900   -1.2230   -0.0010 C   0  0  0  0  0  0  0  0  0  0  0  0
    1.1850   -2.1730   -0.0020 H   0  0  0  0  0  0  0  0  0  0  0  0
   -0.6920   -1.2020    0.0010 C   0  0  0  0  0  0  0  0  0  0  0  0
   -1.2450   -2.1270    0.0020 H   0  0  0  0  0  0  0  0  0  0  0  0
   -1.4130   -0.0050    0.0020 C   0  0  0  0  0  0  0  0  0  0  0  0
   -0.6720    1.1790    0.0010 C   0  0  0  0  0  0  0  0  0  0  0  0
   -1.2050    2.1150    0.0010 H   0  0  0  0  0  0  0  0  0  0  0  0
    0.7110    1.1690   -0.0010 C   0  0  0  0  0  0  0  0  0  0  0  0
    1.2570    2.0930   -0.0020 H   0  0  0  0  0  0  0  0  0  0  0  0
   -2.8710    0.0060    0.0040 C   0  0  0  0  0  0  0  0  0  0  0  0
   -3.5140   -1.0610    0.0050 O   0  5  0  0  0  0  0  0  0  0  0  0
   -3.5010    1.0800    0.0050 O   0  0  0  0  0  0  0  0  0  0  0  0
  1  2  1  0  0  0  0
  1  3  1  0  0  0  0
  1  4  1  0  0  0  0
  1  5  1  0  0  0  0
  5  6  1  0  0  0  0
  6  7  1  0  0  0  0
  6 14  2  0  0  0  0
  7  8  1  0  0  0  0
  7  9  2  0  0  0  0
  9 10  1  0  0  0  0
  9 11  1  0  0  0  0
 11 12  2  0  0  0  0
 11 16  1  0  0  0  0
 12 13  1  0  0  0  0
 12 14  1  0  0  0  0
 14 15  1  0  0  0  0
 16 17  1  0  0  0  0
 16 18  2  0  0  0  0
M  CHG  1  17  -1
M  END
>  <Catalog ID>
Z56931884

>  <a_acc>
1

>  <a_don>
0

>  <a_heavy>
11

>  <logP>
1.66

>  <logS>
-1.66511

>  <TPSA>
49.360001

>  <Weight>
151.14099

$$$$
Z45415618
  MOE2024           3D

 17 17  0  0  0  0  0  0  0  0999 V2000
    3.9580    0.1640    0.6400 N   0  0  0  0  0  0  0  0  0  0  0  0
    4.1340    1.1670    0.6560 H   0  0  0  0  0  0  0  0  0  0  0  0
    4.8560   -0.2740    0.4560 H   0  0  0  0  0  0  0  0  0  0  0  0
    3.1200   -0.0650   -0.7700 S   0  0  0  0  0  0  0  0  0  0  0  0
    3.5100   -1.3890   -1.1870 O   0  0  0  0  0  0  0  0  0  0  0  0
    3.5040    1.0720   -1.5670 O   0  0  0  0  0  0  0  0  0  0  0  0
    1.3760   -0.0260   -0.3030 C   0  0  0  0  0  0  0  0  0  0  0  0
    0.5480   -1.1230   -0.5240 C   0  0  0  0  0  0  0  0  0  0  0  0
    0.9570   -2.0130   -0.9770 H   0  0  0  0  0  0  0  0  0  0  0  0
   -0.7920   -1.0970   -0.1730 C   0  0  0  0  0  0  0  0  0  0  0  0
   -1.4120   -1.9590   -0.3540 H   0  0  0  0  0  0  0  0  0  0  0  0
   -1.3350    0.0340    0.4110 C   0  0  0  0  0  0  0  0  0  0  0  0
   -2.3760    0.0550    0.6840 H   0  0  0  0  0  0  0  0  0  0  0  0
   -0.5310    1.1350    0.6420 C   0  0  0  0  0  0  0  0  0  0  0  0
   -0.9360    2.0220    1.0960 H   0  0  0  0  0  0  0  0  0  0  0  0
    0.8060    1.0940    0.2870 C   0  0  0  0  0  0  0  0  0  0  0  0
    1.7610    2.5200    0.6180 Cl  0  0  0  0  0  0  0  0  0  0  0  0
  1  2  1  0  0  0  0
  1  3  1  0  0  0  0
  1  4  1  0  0  0  0
  4  5  2  0  0  0  0
  4  6  2  0  0  0  0
  4  7  1  0  0  0  0
  7  8  1  0  0  0  0
  7 16  2  0  0  0  0
  8  9  1  0  0  0  0
  8 10  2  0  0  0  0
 10 11  1  0  0  0  0
 10 12  1  0  0  0  0
 12 13  1  0  0  0  0
 12 14  2  0  0  0  0
 14 15  1  0  0  0  0
 14 16  1  0  0  0  0
 16 17  1  0  0  0  0
M  END
>  <Catalog ID>
Z45415618

>  <a_acc>
2

>  <a_don>
1

>  <a_heavy>
11

>  <logP>
0.92400002

>  <logS>
-2.3457799

>  <TPSA>
60.16

>  <Weight>
191.638

$$$$
Z57127524
  MOE2024           3D

 18 18  0  0  0  0  0  0  0  0999 V2000
    3.5650   -0.4720    0.1690 C   0  0  0  0  0  0  0  0  0  0  0  0
    4.5150   -0.1130   -0.1830 H   0  0  0  0  0  0  0  0  0  0  0  0
    3.6150   -1.5180    0.4050 H   0  0  0  0  0  0  0  0  0  0  0  0
    3.2690    0.0920    1.0360 H   0  0  0  0  0  0  0  0  0  0  0  0
    2.6200   -0.2870   -0.8610 O   0  0  0  0  0  0  0  0  0  0  0  0
    1.3400   -0.1070   -0.4840 C   0  0  0  0  0  0  0  0  0  0  0  0
    0.5160   -1.2200   -0.5710 C   0  0  0  0  0  0  0  0  0  0  0  0
    0.9370   -2.1500   -0.9040 H   0  0  0  0  0  0  0  0  0  0  0  0
   -0.8220   -1.1370   -0.2410 C   0  0  0  0  0  0  0  0  0  0  0  0
   -1.4540   -2.0040   -0.3090 H   0  0  0  0  0  0  0  0  0  0  0  0
   -1.3410    0.0760    0.1700 C   0  0  0  0  0  0  0  0  0  0  0  0
   -2.3820    0.1610    0.4260 H   0  0  0  0  0  0  0  0  0  0  0  0
   -0.5200    1.1860    0.2500 C   0  0  0  0  0  0  0  0  0  0  0  0
   -0.9370    2.1290    0.5650 H   0  0  0  0  0  0  0  0  0  0  0  0
    0.8420    1.1390   -0.0660 C   0  0  0  0  0  0  0  0  0  0  0  0
    1.6260    2.3650    0.0510 C   0  0  0  0  0  0  0  0  0  0  0  0
    1.0570    3.4700   -0.0480 O   0  5  0  0  0  0  0  0  0  0  0  0
    2.8430    2.3740    0.3150 O   0  0  0  0  0  0  0  0  0  0  0  0
  1  2  1  0  0  0  0
  1  3  1  0  0  0  0
  1  4  1  0  0  0  0
  1  5  1  0  0  0  0
  5  6  1  0  0  0  0
  6  7  1  0  0  0  0
  6 15  2  0  0  0  0
  7  8  1  0  0  0  0
  7  9  2  0  0  0  0
  9 10  1  0  0  0  0
  9 11  1  0  0  0  0
 11 12  1  0  0  0  0
 11 13  2  0  0  0  0
 13 14  1  0  0  0  0
 13 15  1  0  0  0  0
 15 16  1  0  0  0  0
 16 17  1  0  0  0  0
 16 18  2  0  0  0  0
M  CHG  1  17  -1
M  END
>  <Catalog ID>
Z57127524

>  <a_acc>
1

>  <a_don>
0

>  <a_heavy>
11

>  <logP>
1.658

>  <logS>
-1.66511

>  <TPSA>
49.360001

>  <Weight>
151.14099

$$$$
Z56851240
  MOE2024           3D

 19 19  0  0  0  0  0  0  0  0999 V2000
    2.7280    0.0000    0.7400 N   0  0  0  0  0  0  0  0  0  0  0  0
    3.0830    0.8560    1.1760 H   0  0  0  0  0  0  0  0  0  0  0  0
    3.0760   -0.8440    1.2030 H   0  0  0  0  0  0  0  0  0  0  0  0
    1.4040   -0.0010    0.3500 C   0  0  0  0  0  0  0  0  0  0  0  0
    0.7200   -1.1950    0.1710 C   0  0  0  0  0  0  0  0  0  0  0  0
    1.2340   -2.1250    0.3280 H   0  0  0  0  0  0  0  0  0  0  0  0
   -0.6090   -1.1930   -0.2120 C   0  0  0  0  0  0  0  0  0  0  0  0
   -1.1220   -2.1310   -0.3450 H   0  0  0  0  0  0  0  0  0  0  0  0
   -1.2960   -0.0030   -0.4330 C   0  0  0  0  0  0  0  0  0  0  0  0
   -0.5990    1.1880   -0.2510 C   0  0  0  0  0  0  0  0  0  0  0  0
   -1.1050    2.1250   -0.4150 H   0  0  0  0  0  0  0  0  0  0  0  0
    0.7300    1.1910    0.1320 C   0  0  0  0  0  0  0  0  0  0  0  0
    1.2510    2.1220    0.2590 H   0  0  0  0  0  0  0  0  0  0  0  0
   -3.0420   -0.0030   -0.9130 S   0  0  0  0  0  0  0  0  0  0  0  0
   -3.8660    0.0640    0.5190 N   0  0  0  0  0  0  0  0  0  0  0  0
   -4.4560   -0.7630    0.4850 H   0  0  0  0  0  0  0  0  0  0  0  0
   -4.4840    0.8610    0.3920 H   0  0  0  0  0  0  0  0  0  0  0  0
   -3.4310    1.2290   -1.5550 O   0  0  0  0  0  0  0  0  0  0  0  0
   -3.4590   -1.2750   -1.4500 O   0  0  0  0  0  0  0  0  0  0  0  0
  1  2  1  0  0  0  0
  1  3  1  0  0  0  0
  1  4  1  0  0  0  0
  4  5  1  0  0  0  0
  4 12  2  0  0  0  0
  5  6  1  0  0  0  0
  5  7  2  0  0  0  0
  7  8  1  0  0  0  0
  7  9  1  0  0  0  0
  9 10  2  0  0  0  0
  9 14  1  0  0  0  0
 10 11  1  0  0  0  0
 10 12  1  0  0  0  0
 12 13  1  0  0  0  0
 14 15  1  0  0  0  0
 14 18  2  0  0  0  0
 14 19  2  0  0  0  0
 15 16  1  0  0  0  0
 15 17  1  0  0  0  0
M  END
>  <Catalog ID>
Z56851240

>  <a_acc>
2

>  <a_don>
2

>  <a_heavy>
11

>  <logP>
-0.338

>  <logS>
-1.33237

>  <TPSA>
86.18

>  <Weight>
172.20799

$$$$
Z104484428
  MOE2024           3D

 16 16  0  0  0  0  0  0  0  0999 V2000
    2.8160   -0.1600   -0.3220 N   0  0  0  0  0  0  0  0  0  0  0  0
    3.2280    0.8030   -0.3550 H   0  0  0  0  0  0  0  0  0  0  0  0
    3.2920   -0.6690    0.4210 H   0  0  0  0  0  0  0  0  0  0  0  0
    1.4540   -0.0470   -0.1620 C   0  0  0  0  0  0  0  0  0  0  0  0
    0.6960   -1.2150   -0.1550 C   0  0  0  0  0  0  0  0  0  0  0  0
    1.1990   -2.1550   -0.2800 H   0  0  0  0  0  0  0  0  0  0  0  0
   -0.6740   -1.1730   -0.0020 C   0  0  0  0  0  0  0  0  0  0  0  0
   -1.2670   -2.0680    0.0030 H   0  0  0  0  0  0  0  0  0  0  0  0
   -1.2690    0.0640    0.1440 C   0  0  0  0  0  0  0  0  0  0  0  0
   -3.1850    0.1460    0.3560 Br  0  0  0  0  0  0  0  0  0  0  0  0
   -0.5440    1.2360    0.1430 C   0  0  0  0  0  0  0  0  0  0  0  0
   -1.0510    2.1790    0.2600 H   0  0  0  0  0  0  0  0  0  0  0  0
    0.8470    1.2160   -0.0060 C   0  0  0  0  0  0  0  0  0  0  0  0
    1.5890    2.4720    0.0170 C   0  0  0  0  0  0  0  0  0  0  0  0
    0.9840    3.5560    0.1040 O   0  5  0  0  0  0  0  0  0  0  0  0
    2.8370    2.5100   -0.0300 O   0  0  0  0  0  0  0  0  0  0  0  0
  1  2  1  0  0  0  0
  1  3  1  0  0  0  0
  1  4  1  0  0  0  0
  4  5  1  0  0  0  0
  4 13  2  0  0  0  0
  5  6  1  0  0  0  0
  5  7  2  0  0  0  0
  7  8  1  0  0  0  0
  7  9  1  0  0  0  0
  9 10  1  0  0  0  0
  9 11  2  0  0  0  0
 11 12  1  0  0  0  0
 11 13  1  0  0  0  0
 13 14  1  0  0  0  0
 14 15  1  0  0  0  0
 14 16  2  0  0  0  0
M  CHG  1  15  -1
M  END
>  <Catalog ID>
Z104484428

>  <a_acc>
0

>  <a_don>
1

>  <a_heavy>
11

>  <logP>
1.865

>  <logS>
-2.4260001

>  <TPSA>
66.150002

>  <Weight>
215.026

$$$$
Z56899125
  MOE2024           3D

 16 17  0  0  0  0  0  0  0  0999 V2000
    0.1740   -4.7940   -0.0900 N   0  0  0  0  0  0  0  0  0  0  0  0
   -0.6340   -5.4160   -0.0890 H   0  0  0  0  0  0  0  0  0  0  0  0
    1.1000   -5.2250   -0.1100 H   0  0  0  0  0  0  0  0  0  0  0  0
    0.0630   -3.4470   -0.0660 C   0  0  0  0  0  0  0  0  0  0  0  0
    1.0220   -2.6030   -0.0660 N   0  0  0  0  0  0  0  0  0  0  0  0
    0.5440   -1.3030   -0.0380 C   0  0  0  0  0  0  0  0  0  0  0  0
    1.3390   -0.1610   -0.0300 C   0  0  0  0  0  0  0  0  0  0  0  0
    2.4080   -0.2720   -0.0470 H   0  0  0  0  0  0  0  0  0  0  0  0
    0.7440    1.0930    0.0000 C   0  0  0  0  0  0  0  0  0  0  0  0
    1.3400    1.9880    0.0060 H   0  0  0  0  0  0  0  0  0  0  0  0
   -0.6430    1.1890    0.0210 C   0  0  0  0  0  0  0  0  0  0  0  0
   -1.1870    2.3760    0.0490 F   0  0  0  0  0  0  0  0  0  0  0  0
   -1.4690    0.0800    0.0140 C   0  0  0  0  0  0  0  0  0  0  0  0
   -2.5390    0.1700    0.0310 H   0  0  0  0  0  0  0  0  0  0  0  0
   -0.8340   -1.1470   -0.0160 C   0  0  0  0  0  0  0  0  0  0  0  0
   -1.5520   -2.7420   -0.0320 S   0  0  0  0  0  0  0  0  0  0  0  0
  1  2  1  0  0  0  0
  1  3  1  0  0  0  0
  1  4  1  0  0  0  0
  4  5  2  0  0  0  0
  4 16  1  0  0  0  0
  5  6  1  0  0  0  0
  6  7  1  0  0  0  0
  6 15  2  0  0  0  0
  7  8  1  0  0  0  0
  7  9  2  0  0  0  0
  9 10  1  0  0  0  0
  9 11  1  0  0  0  0
 11 12  1  0  0  0  0
 11 13  2  0  0  0  0
 13 14  1  0  0  0  0
 13 15  1  0  0  0  0
 15 16  1  0  0  0  0
M  END
>  <Catalog ID>
Z56899125

>  <a_acc>
1

>  <a_don>
1

>  <a_heavy>
11

>  <logP>
2.0510001

>  <logS>
-2.6875899

>  <TPSA>
38.91

>  <Weight>
168.19499

$$$$
Z57183224
  MOE2024           3D

 15 16  0  0  0  0  0  0  0  0999 V2000
   -0.0160   -4.6000   -0.0050 O   0  0  0  0  0  0  0  0  0  0  0  0
    0.0180   -3.3870   -0.0050 C   0  0  0  0  0  0  0  0  0  0  0  0
    1.1390   -2.6270    0.0030 N   0  0  0  0  0  0  0  0  0  0  0  0
    2.0790   -3.0190    0.0100 H   0  0  0  0  0  0  0  0  0  0  0  0
    0.7360   -1.3130    0.0010 C   0  0  0  0  0  0  0  0  0  0  0  0
    1.4220   -0.1090    0.0060 C   0  0  0  0  0  0  0  0  0  0  0  0
    2.4960   -0.0760    0.0130 H   0  0  0  0  0  0  0  0  0  0  0  0
    0.6700    1.0530    0.0010 C   0  0  0  0  0  0  0  0  0  0  0  0
    1.4920    2.5920    0.0070 Cl  0  0  0  0  0  0  0  0  0  0  0  0
   -0.7230    1.0350   -0.0080 C   0  0  0  0  0  0  0  0  0  0  0  0
   -1.2630    1.9660   -0.0120 H   0  0  0  0  0  0  0  0  0  0  0  0
   -1.4000   -0.1760   -0.0130 C   0  0  0  0  0  0  0  0  0  0  0  0
   -2.4750   -0.2250   -0.0210 H   0  0  0  0  0  0  0  0  0  0  0  0
   -0.6440   -1.3360   -0.0090 C   0  0  0  0  0  0  0  0  0  0  0  0
   -1.0720   -2.6170   -0.0120 O   0  0  0  0  0  0  0  0  0  0  0  0
  1  2  2  0  0  0  0
  2  3  1  0  0  0  0
  2 15  1  0  0  0  0
  3  4  1  0  0  0  0
  3  5  1  0  0  0  0
  5  6  1  0  0  0  0
  5 14  2  0  0  0  0
  6  7  1  0  0  0  0
  6  8  2  0  0  0  0
  8  9  1  0  0  0  0
  8 10  1  0  0  0  0
 10 11  1  0  0  0  0
 10 12  2  0  0  0  0
 12 13  1  0  0  0  0
 12 14  1  0  0  0  0
 14 15  1  0  0  0  0
M  END
>  <Catalog ID>
Z57183224

>  <a_acc>
1

>  <a_don>
1

>  <a_heavy>
11

>  <logP>
1.796

>  <logS>
-2.8966501

>  <TPSA>
38.330002

>  <Weight>
169.567

$$$$
Z57607000
  MOE2024           3D

 16 17  0  0  0  0  0  0  0  0999 V2000
    0.1550   -4.8270    0.0020 N   0  0  0  0  0  0  0  0  0  0  0  0
   -0.6570   -5.4430    0.0040 H   0  0  0  0  0  0  0  0  0  0  0  0
    1.0780   -5.2630    0.0010 H   0  0  0  0  0  0  0  0  0  0  0  0
    0.0560   -3.4780    0.0020 C   0  0  0  0  0  0  0  0  0  0  0  0
    1.0210   -2.6440    0.0000 N   0  0  0  0  0  0  0  0  0  0  0  0
    0.5570   -1.3310    0.0000 C   0  0  0  0  0  0  0  0  0  0  0  0
    1.3230   -0.1660   -0.0020 C   0  0  0  0  0  0  0  0  0  0  0  0
    3.0700   -0.2580   -0.0060 Cl  0  0  0  0  0  0  0  0  0  0  0  0
    0.7240    1.0830   -0.0010 C   0  0  0  0  0  0  0  0  0  0  0  0
    1.3410    1.9640   -0.0030 H   0  0  0  0  0  0  0  0  0  0  0  0
   -0.6640    1.1990    0.0020 C   0  0  0  0  0  0  0  0  0  0  0  0
   -1.1210    2.1740    0.0030 H   0  0  0  0  0  0  0  0  0  0  0  0
   -1.4540    0.0600    0.0040 C   0  0  0  0  0  0  0  0  0  0  0  0
   -2.5280    0.1210    0.0070 H   0  0  0  0  0  0  0  0  0  0  0  0
   -0.8180   -1.1680    0.0030 C   0  0  0  0  0  0  0  0  0  0  0  0
   -1.5520   -2.7570    0.0060 S   0  0  0  0  0  0  0  0  0  0  0  0
  1  2  1  0  0  0  0
  1  3  1  0  0  0  0
  1  4  1  0  0  0  0
  4  5  2  0  0  0  0
  4 16  1  0  0  0  0
  5  6  1  0  0  0  0
  6  7  1  0  0  0  0
  6 15  2  0  0  0  0
  7  8  1  0  0  0  0
  7  9  2  0  0  0  0
  9 10  1  0  0  0  0
  9 11  1  0  0  0  0
 11 12  1  0  0  0  0
 11 13  2  0  0  0  0
 13 14  1  0  0  0  0
 13 15  1  0  0  0  0
 15 16  1  0  0  0  0
M  END
>  <Catalog ID>
Z57607000

>  <a_acc>
1

>  <a_don>
1

>  <a_heavy>
11

>  <logP>
2.451

>  <logS>
-3.1269

>  <TPSA>
38.91

>  <Weight>
184.64999

$$$$
Z729557174
  MOE2024           3D

 13 13  0  0  0  0  0  0  0  0999 V2000
    3.3580   -0.0310   -1.3050 F   0  0  0  0  0  0  0  0  0  0  0  0
    2.8610   -0.0320   -0.0670 C   0  0  0  0  0  0  0  0  0  0  0  0
    3.3830   -1.1070    0.5270 F   0  0  0  0  0  0  0  0  0  0  0  0
    3.4210    1.0110    0.5460 F   0  0  0  0  0  0  0  0  0  0  0  0
    1.2860   -0.0020   -0.0500 C   0  0  0  0  0  0  0  0  0  0  0  0
    0.6380   -1.1790   -0.0110 N   0  0  0  0  0  0  0  0  0  0  0  0
   -0.6800   -1.1420   -0.0020 C   0  0  0  0  0  0  0  0  0  0  0  0
   -1.2260   -2.0700    0.0290 H   0  0  0  0  0  0  0  0  0  0  0  0
   -1.3510    0.0520   -0.0330 C   0  0  0  0  0  0  0  0  0  0  0  0
   -3.2750    0.0920   -0.0190 Br  0  0  0  0  0  0  0  0  0  0  0  0
   -0.6330    1.2180   -0.0740 C   0  0  0  0  0  0  0  0  0  0  0  0
   -1.1410    2.1670   -0.1000 H   0  0  0  0  0  0  0  0  0  0  0  0
    0.6860    1.2010   -0.0840 N   0  0  0  0  0  0  0  0  0  0  0  0
  1  2  1  0  0  0  0
  2  3  1  0  0  0  0
  2  4  1  0  0  0  0
  2  5  1  0  0  0  0
  5  6  1  0  0  0  0
  5 13  2  0  0  0  0
  6  7  2  0  0  0  0
  7  8  1  0  0  0  0
  7  9  1  0  0  0  0
  9 10  1  0  0  0  0
  9 11  2  0  0  0  0
 11 12  1  0  0  0  0
 11 13  1  0  0  0  0
M  END
>  <Catalog ID>
Z729557174

>  <a_acc>
2

>  <a_don>
0

>  <a_heavy>
11

>  <logP>
1.29476

>  <logS>
-2.2665

>  <TPSA>
25.780001

>  <Weight>
226.983

$$$$
Z104476066
  MOE2024           3D

 17 17  0  0  0  0  0  0  0  0999 V2000
    4.0500   -1.0860    1.8470 O   0  5  0  0  0  0  0  0  0  0  0  0
    3.6520   -1.3010    0.6980 C   0  0  0  0  0  0  0  0  0  0  0  0
    3.7240   -2.4140    0.1640 O   0  0  0  0  0  0  0  0  0  0  0  0
    3.0950   -0.1450   -0.1070 C   0  0  0  0  0  0  0  0  0  0  0  0
    3.4530   -0.2520   -1.1120 H   0  0  0  0  0  0  0  0  0  0  0  0
    3.5100    0.7580    0.2970 H   0  0  0  0  0  0  0  0  0  0  0  0
    1.5690   -0.0720   -0.1200 C   0  0  0  0  0  0  0  0  0  0  0  0
    0.8320   -1.1570   -0.5760 C   0  0  0  0  0  0  0  0  0  0  0  0
    1.3500   -2.0470   -0.9020 H   0  0  0  0  0  0  0  0  0  0  0  0
   -0.5530   -1.1110   -0.6030 C   0  0  0  0  0  0  0  0  0  0  0  0
   -1.1210   -1.9540   -0.9520 H   0  0  0  0  0  0  0  0  0  0  0  0
   -1.1990    0.0320   -0.1680 C   0  0  0  0  0  0  0  0  0  0  0  0
   -2.9480    0.0810   -0.2100 Cl  0  0  0  0  0  0  0  0  0  0  0  0
   -0.4690    1.1160    0.2910 C   0  0  0  0  0  0  0  0  0  0  0  0
   -1.2770    2.5680    0.8410 Cl  0  0  0  0  0  0  0  0  0  0  0  0
    0.9130    1.0690    0.3180 C   0  0  0  0  0  0  0  0  0  0  0  0
    1.4680    1.9140    0.6820 H   0  0  0  0  0  0  0  0  0  0  0  0
  1  2  1  0  0  0  0
  2  3  2  0  0  0  0
  2  4  1  0  0  0  0
  4  5  1  0  0  0  0
  4  6  1  0  0  0  0
  4  7  1  0  0  0  0
  7  8  1  0  0  0  0
  7 16  2  0  0  0  0
  8  9  1  0  0  0  0
  8 10  2  0  0  0  0
 10 11  1  0  0  0  0
 10 12  1  0  0  0  0
 12 13  1  0  0  0  0
 12 14  2  0  0  0  0
 14 15  1  0  0  0  0
 14 16  1  0  0  0  0
 16 17  1  0  0  0  0
M  CHG  1   1  -1
M  END
>  <Catalog ID>
Z104476066

>  <a_acc>
0

>  <a_don>
0

>  <a_heavy>
12

>  <logP>
3.0109999

>  <logS>
-3.1447799

>  <TPSA>
40.130001

>  <Weight>
204.032

$$$$
Z56922074
  MOE2024           3D

 17 18  0  0  0  0  0  0  0  0999 V2000
   -1.4050   -4.6970    0.0190 O   0  0  0  0  0  0  0  0  0  0  0  0
   -0.6830   -3.6880    0.0130 C   0  0  0  0  0  0  0  0  0  0  0  0
    0.7030   -3.7150    0.0080 C   0  0  0  0  0  0  0  0  0  0  0  0
    1.2100   -4.6570    0.0090 H   0  0  0  0  0  0  0  0  0  0  0  0
    1.4590   -2.5590    0.0020 C   0  0  0  0  0  0  0  0  0  0  0  0
    2.6970   -2.6050   -0.0030 O   0  5  0  0  0  0  0  0  0  0  0  0
    0.7440   -1.3090    0.0010 C   0  0  0  0  0  0  0  0  0  0  0  0
    1.3820   -0.0730   -0.0050 C   0  0  0  0  0  0  0  0  0  0  0  0
    2.4580   -0.0750   -0.0090 H   0  0  0  0  0  0  0  0  0  0  0  0
    0.6600    1.1060   -0.0050 C   0  0  0  0  0  0  0  0  0  0  0  0
    1.1790    2.0470   -0.0100 H   0  0  0  0  0  0  0  0  0  0  0  0
   -0.7270    1.0700    0.0000 C   0  0  0  0  0  0  0  0  0  0  0  0
   -1.2870    1.9880    0.0000 H   0  0  0  0  0  0  0  0  0  0  0  0
   -1.3820   -0.1470    0.0060 C   0  0  0  0  0  0  0  0  0  0  0  0
   -2.4550   -0.1910    0.0100 H   0  0  0  0  0  0  0  0  0  0  0  0
   -0.6570   -1.3310    0.0070 C   0  0  0  0  0  0  0  0  0  0  0  0
   -1.3380   -2.5040    0.0130 O   0  0  0  0  0  0  0  0  0  0  0  0
  1  2  2  0  0  0  0
  2  3  1  0  0  0  0
  2 17  1  0  0  0  0
  3  4  1  0  0  0  0
  3  5  2  0  0  0  0
  5  6  1  0  0  0  0
  5  7  1  0  0  0  0
  7  8  1  0  0  0  0
  7 16  2  0  0  0  0
  8  9  1  0  0  0  0
  8 10  2  0  0  0  0
 10 11  1  0  0  0  0
 10 12  1  0  0  0  0
 12 13  1  0  0  0  0
 12 14  2  0  0  0  0
 14 15  1  0  0  0  0
 14 16  1  0  0  0  0
 16 17  1  0  0  0  0
M  CHG  1   6  -1
M  END
>  <Catalog ID>
Z56922074

>  <a_acc>
0

>  <a_don>
0

>  <a_heavy>
12

>  <logP>
2.0669999

>  <logS>
-2.7055299

>  <TPSA>
49.360001

>  <Weight>
161.136

$$$$
Z169855336
  MOE2024           3D

 23 23  0  0  0  0  0  0  0  0999 V2000
    2.8630   -0.0250    0.0010 C   0  0  0  0  0  0  0  0  0  0  0  0
    3.2370   -1.0330    0.0020 H   0  0  0  0  0  0  0  0  0  0  0  0
    3.2340    0.4790    0.8750 H   0  0  0  0  0  0  0  0  0  0  0  0
    3.2340    0.4770   -0.8750 H   0  0  0  0  0  0  0  0  0  0  0  0
    1.3460   -0.0080    0.0000 C   0  0  0  0  0  0  0  0  0  0  0  0
    0.6190   -1.1870    0.0010 C   0  0  0  0  0  0  0  0  0  0  0  0
    1.1230   -2.1360    0.0020 H   0  0  0  0  0  0  0  0  0  0  0  0
   -0.7650   -1.1540    0.0010 C   0  0  0  0  0  0  0  0  0  0  0  0
   -1.3180   -2.0760    0.0020 H   0  0  0  0  0  0  0  0  0  0  0  0
   -1.4500    0.0520    0.0000 C   0  0  0  0  0  0  0  0  0  0  0  0
   -0.7160    1.2300   -0.0010 C   0  0  0  0  0  0  0  0  0  0  0  0
   -1.2100    2.1840   -0.0020 H   0  0  0  0  0  0  0  0  0  0  0  0
    0.6690    1.2000   -0.0010 C   0  0  0  0  0  0  0  0  0  0  0  0
    1.2160    2.1250   -0.0010 H   0  0  0  0  0  0  0  0  0  0  0  0
   -2.9800    0.0040    0.0000 C   0  0  0  0  0  0  0  0  0  0  0  0
   -3.3070   -0.5470    0.8640 H   0  0  0  0  0  0  0  0  0  0  0  0
   -3.3070   -0.5430   -0.8680 H   0  0  0  0  0  0  0  0  0  0  0  0
   -3.6890    1.3700    0.0030 C   0  0  0  0  0  0  0  0  0  0  0  0
   -3.4100    1.9290   -0.8690 H   0  0  0  0  0  0  0  0  0  0  0  0
   -3.4090    1.9250    0.8760 H   0  0  0  0  0  0  0  0  0  0  0  0
   -5.1970    1.2720    0.0040 C   0  0  0  0  0  0  0  0  0  0  0  0
   -5.7440    0.1640   -0.0030 O   0  5  0  0  0  0  0  0  0  0  0  0
   -5.8370    2.3270    0.0120 O   0  0  0  0  0  0  0  0  0  0  0  0
  1  2  1  0  0  0  0
  1  3  1  0  0  0  0
  1  4  1  0  0  0  0
  1  5  1  0  0  0  0
  5  6  1  0  0  0  0
  5 13  2  0  0  0  0
  6  7  1  0  0  0  0
  6  8  2  0  0  0  0
  8  9  1  0  0  0  0
  8 10  1  0  0  0  0
 10 11  2  0  0  0  0
 10 15  1  0  0  0  0
 11 12  1  0  0  0  0
 11 13  1  0  0  0  0
 13 14  1  0  0  0  0
 15 16  1  0  0  0  0
 15 17  1  0  0  0  0
 15 18  1  0  0  0  0
 18 19  1  0  0  0  0
 18 20  1  0  0  0  0
 18 21  1  0  0  0  0
 21 22  1  0  0  0  0
 21 23  2  0  0  0  0
M  CHG  1  22  -1
M  END
>  <Catalog ID>
Z169855336

>  <a_acc>
0

>  <a_don>
0

>  <a_heavy>
12

>  <logP>
2.178

>  <logS>
-2.0320401

>  <TPSA>
40.130001

>  <Weight>
163.196

$$$$
Z104476062
  MOE2024           3D

 26 26  0  0  0  0  0  0  0  0999 V2000
    3.2540   -1.2420   -1.0300 C   0  0  0  0  0  0  0  0  0  0  0  0
    4.2840   -1.1680   -1.3280 H   0  0  0  0  0  0  0  0  0  0  0  0
    2.6500   -1.3220   -1.9170 H   0  0  0  0  0  0  0  0  0  0  0  0
    3.1540   -2.1440   -0.4570 H   0  0  0  0  0  0  0  0  0  0  0  0
    2.8320   -0.0060   -0.2130 C   0  0  0  0  0  0  0  0  0  0  0  0
    3.2730    1.2290   -1.0210 C   0  0  0  0  0  0  0  0  0  0  0  0
    4.3030    1.1440   -1.3160 H   0  0  0  0  0  0  0  0  0  0  0  0
    3.1820    2.1280   -0.4400 H   0  0  0  0  0  0  0  0  0  0  0  0
    2.6710    1.3250   -1.9070 H   0  0  0  0  0  0  0  0  0  0  0  0
    3.5840   -0.0170    1.1220 C   0  0  0  0  0  0  0  0  0  0  0  0
    4.6470   -0.0230    0.9620 H   0  0  0  0  0  0  0  0  0  0  0  0
    3.3150   -0.8870    1.6930 H   0  0  0  0  0  0  0  0  0  0  0  0
    3.3270    0.8540    1.6980 H   0  0  0  0  0  0  0  0  0  0  0  0
    1.3140    0.0040    0.0830 C   0  0  0  0  0  0  0  0  0  0  0  0
    0.5990   -1.1830    0.2450 C   0  0  0  0  0  0  0  0  0  0  0  0
    1.0870   -2.1350    0.1660 H   0  0  0  0  0  0  0  0  0  0  0  0
   -0.7600   -1.1830    0.5190 C   0  0  0  0  0  0  0  0  0  0  0  0
   -1.2790   -2.1160    0.6330 H   0  0  0  0  0  0  0  0  0  0  0  0
   -1.4340    0.0170    0.6450 C   0  0  0  0  0  0  0  0  0  0  0  0
   -2.7590    0.0310    0.9100 O   0  0  0  0  0  0  0  0  0  0  0  0
   -3.1300   -0.8660    0.9890 H   0  0  0  0  0  0  0  0  0  0  0  0
   -0.7380    1.2090    0.5000 C   0  0  0  0  0  0  0  0  0  0  0  0
   -1.3960    2.3720    0.6310 O   0  0  0  0  0  0  0  0  0  0  0  0
   -2.3360    2.1790    0.8220 H   0  0  0  0  0  0  0  0  0  0  0  0
    0.6170    1.2030    0.2270 C   0  0  0  0  0  0  0  0  0  0  0  0
    1.0990    2.1570    0.1370 H   0  0  0  0  0  0  0  0  0  0  0  0
  1  2  1  0  0  0  0
  1  3  1  0  0  0  0
  1  4  1  0  0  0  0
  1  5  1  0  0  0  0
  5  6  1  0  0  0  0
  5 10  1  0  0  0  0
  5 14  1  0  0  0  0
  6  7  1  0  0  0  0
  6  8  1  0  0  0  0
  6  9  1  0  0  0  0
 10 11  1  0  0  0  0
 10 12  1  0  0  0  0
 10 13  1  0  0  0  0
 14 15  1  0  0  0  0
 14 25  2  0  0  0  0
 15 16  1  0  0  0  0
 15 17  2  0  0  0  0
 17 18  1  0  0  0  0
 17 19  1  0  0  0  0
 19 20  1  0  0  0  0
 19 22  2  0  0  0  0
 20 21  1  0  0  0  0
 22 23  1  0  0  0  0
 22 25  1  0  0  0  0
 23 24  1  0  0  0  0
 25 26  1  0  0  0  0
M  END
>  <Catalog ID>
Z104476062

>  <a_acc>
2

>  <a_don>
2

>  <a_heavy>
12

>  <logP>
2.8239999

>  <logS>
-2.6805601

>  <TPSA>
40.459999

>  <Weight>
166.22

$$$$
Z1198176426
  MOE2024           3D

 28 29  0  0  0  0  0  0  0  0999 V2000
   -2.7960   -2.2390    1.0050 C   0  0  0  0  0  0  0  0  0  0  0  0
   -3.3230   -3.1130    1.3470 H   0  0  0  0  0  0  0  0  0  0  0  0
   -3.5120   -1.5970    0.5250 H   0  0  0  0  0  0  0  0  0  0  0  0
   -2.4040   -1.7180    1.8610 H   0  0  0  0  0  0  0  0  0  0  0  0
   -1.6580   -2.6250    0.0430 C   0  0  0  0  0  0  0  0  0  0  0  0
   -2.2610   -3.2470   -1.2280 C   0  0  0  0  0  0  0  0  0  0  0  0
   -2.8160   -4.1390   -0.9950 H   0  0  0  0  0  0  0  0  0  0  0  0
   -1.4940   -3.4920   -1.9410 H   0  0  0  0  0  0  0  0  0  0  0  0
   -2.9350   -2.5540   -1.7020 H   0  0  0  0  0  0  0  0  0  0  0  0
   -0.7730   -3.6710    0.7580 C   0  0  0  0  0  0  0  0  0  0  0  0
   -1.2880   -4.6170    0.7680 H   0  0  0  0  0  0  0  0  0  0  0  0
   -0.6240   -3.3600    1.7790 H   0  0  0  0  0  0  0  0  0  0  0  0
    0.5510   -3.8110    0.0890 N   0  3  0  0  0  0  0  0  0  0  0  0
    0.3960   -3.9250   -0.9200 H   0  0  0  0  0  0  0  0  0  0  0  0
    1.0650   -4.6270    0.4390 H   0  0  0  0  0  0  0  0  0  0  0  0
    1.3440   -2.5750    0.2780 C   0  0  0  0  0  0  0  0  0  0  0  0
    2.2790   -2.6510   -0.2540 H   0  0  0  0  0  0  0  0  0  0  0  0
    1.5580   -2.4260    1.3240 H   0  0  0  0  0  0  0  0  0  0  0  0
    0.5630   -1.3820   -0.2450 C   0  0  0  0  0  0  0  0  0  0  0  0
    1.2820   -0.2550   -0.6200 C   0  0  0  0  0  0  0  0  0  0  0  0
    2.3560   -0.2280   -0.5400 H   0  0  0  0  0  0  0  0  0  0  0  0
    0.6320    0.8620   -1.1070 C   0  0  0  0  0  0  0  0  0  0  0  0
    1.1930    1.7350   -1.3960 H   0  0  0  0  0  0  0  0  0  0  0  0
   -0.7430    0.8600   -1.2230 C   0  0  0  0  0  0  0  0  0  0  0  0
   -1.2520    1.7280   -1.6050 H   0  0  0  0  0  0  0  0  0  0  0  0
   -1.4650   -0.2580   -0.8510 C   0  0  0  0  0  0  0  0  0  0  0  0
   -2.5350   -0.2280   -0.9630 H   0  0  0  0  0  0  0  0  0  0  0  0
   -0.8300   -1.3900   -0.3520 C   0  0  0  0  0  0  0  0  0  0  0  0
  1  2  1  0  0  0  0
  1  3  1  0  0  0  0
  1  4  1  0  0  0  0
  1  5  1  0  0  0  0
  5  6  1  0  0  0  0
  5 10  1  0  0  0  0
  5 28  1  0  0  0  0
  6  7  1  0  0  0  0
  6  8  1  0  0  0  0
  6  9  1  0  0  0  0
 10 11  1  0  0  0  0
 10 12  1  0  0  0  0
 10 13  1  0  0  0  0
 13 14  1  0  0  0  0
 13 15  1  0  0  0  0
 13 16  1  0  0  0  0
 16 17  1  0  0  0  0
 16 18  1  0  0  0  0
 16 19  1  0  0  0  0
 19 20  1  0  0  0  0
 19 28  2  0  0  0  0
 20 21  1  0  0  0  0
 20 22  2  0  0  0  0
 22 23  1  0  0  0  0
 22 24  1  0  0  0  0
 24 25  1  0  0  0  0
 24 26  2  0  0  0  0
 26 27  1  0  0  0  0
 26 28  1  0  0  0  0
M  CHG  1  13   1
M  END
>  <Catalog ID>
Z1198176426

>  <a_acc>
0

>  <a_don>
0

>  <a_heavy>
12

>  <logP>
2.319

>  <logS>
-1.6884

>  <TPSA>
16.610001

>  <Weight>
162.256

$$$$
Z1201619441
  MOE2024           3D

 24 24  0  0  0  0  0  0  0  0999 V2000
    5.3970   -2.4620    0.1040 C   0  0  0  0  0  0  0  0  0  0  0  0
    6.4720   -2.4850    0.0860 H   0  0  0  0  0  0  0  0  0  0  0  0
    5.0290   -3.0700   -0.7030 H   0  0  0  0  0  0  0  0  0  0  0  0
    5.0620   -2.8660    1.0420 H   0  0  0  0  0  0  0  0  0  0  0  0
    4.9110   -1.0250   -0.0550 C   0  0  0  0  0  0  0  0  0  0  0  0
    5.2290   -0.6100   -0.9970 H   0  0  0  0  0  0  0  0  0  0  0  0
    5.2650   -0.4060    0.7520 H   0  0  0  0  0  0  0  0  0  0  0  0
    3.5020   -1.0370   -0.0250 O   0  0  0  0  0  0  0  0  0  0  0  0
    2.7840    0.0860   -0.1340 C   0  0  0  0  0  0  0  0  0  0  0  0
    3.3800    1.1380   -0.2600 O   0  0  0  0  0  0  0  0  0  0  0  0
    1.3430   -0.0250   -0.0850 C   0  0  0  0  0  0  0  0  0  0  0  0
    0.4420    1.0420    0.0720 C   0  0  0  0  0  0  0  0  0  0  0  0
    0.8050    2.5070    0.2090 C   0  0  0  0  0  0  0  0  0  0  0  0
    1.4740    2.6440    1.0380 H   0  0  0  0  0  0  0  0  0  0  0  0
   -0.0810    3.0920    0.3780 H   0  0  0  0  0  0  0  0  0  0  0  0
    1.2810    2.8500   -0.6910 H   0  0  0  0  0  0  0  0  0  0  0  0
   -0.7940    0.6650    0.0980 N   0  0  0  0  0  0  0  0  0  0  0  0
   -0.7480   -0.6660   -0.0430 N   0  0  0  0  0  0  0  0  0  0  0  0
   -1.6020   -1.2360   -0.0590 H   0  0  0  0  0  0  0  0  0  0  0  0
    0.5120   -1.1140   -0.1610 C   0  0  0  0  0  0  0  0  0  0  0  0
    0.8230   -2.5930   -0.3440 C   0  0  0  0  0  0  0  0  0  0  0  0
    1.8220   -2.7400   -0.7100 H   0  0  0  0  0  0  0  0  0  0  0  0
    0.1460   -3.0300   -1.0560 H   0  0  0  0  0  0  0  0  0  0  0  0
    0.7220   -3.1090    0.5940 H   0  0  0  0  0  0  0  0  0  0  0  0
  1  2  1  0  0  0  0
  1  3  1  0  0  0  0
  1  4  1  0  0  0  0
  1  5  1  0  0  0  0
  5  6  1  0  0  0  0
  5  7  1  0  0  0  0
  5  8  1  0  0  0  0
  8  9  1  0  0  0  0
  9 10  2  0  0  0  0
  9 11  1  0  0  0  0
 11 12  1  0  0  0  0
 11 20  2  0  0  0  0
 12 13  1  0  0  0  0
 12 17  2  0  0  0  0
 13 14  1  0  0  0  0
 13 15  1  0  0  0  0
 13 16  1  0  0  0  0
 17 18  1  0  0  0  0
 18 19  1  0  0  0  0
 18 20  1  0  0  0  0
 20 21  1  0  0  0  0
 21 22  1  0  0  0  0
 21 23  1  0  0  0  0
 21 24  1  0  0  0  0
M  END
>  <Catalog ID>
Z1201619441

>  <a_acc>
3

>  <a_don>
2

>  <a_heavy>
12

>  <logP>
1.298

>  <logS>
-1.1566401

>  <TPSA>
54.98

>  <Weight>
168.196

$$$$
Z1251357721
  MOE2024           3D

 20 21  0  0  0  0  0  0  0  0999 V2000
   -1.2080   -5.3000    0.4020 O   0  0  0  0  0  0  0  0  0  0  0  0
   -1.1790   -4.8600    1.2730 H   0  0  0  0  0  0  0  0  0  0  0  0
   -0.0880   -4.9240   -0.3030 C   0  0  0  0  0  0  0  0  0  0  0  0
   -0.2050   -5.2370   -1.3260 H   0  0  0  0  0  0  0  0  0  0  0  0
    0.7700   -5.4070    0.1320 H   0  0  0  0  0  0  0  0  0  0  0  0
    0.0070   -3.4210   -0.1830 C   0  0  0  0  0  0  0  0  0  0  0  0
    1.0150   -2.6640    0.3150 C   0  0  0  0  0  0  0  0  0  0  0  0
    1.9570   -2.9840    0.7260 H   0  0  0  0  0  0  0  0  0  0  0  0
    0.6310   -1.3100    0.2100 C   0  0  0  0  0  0  0  0  0  0  0  0
    1.2240   -0.0870    0.5430 C   0  0  0  0  0  0  0  0  0  0  0  0
    2.8150   -0.0810    1.2660 Cl  0  0  0  0  0  0  0  0  0  0  0  0
    0.5700    1.0990    0.3090 C   0  0  0  0  0  0  0  0  0  0  0  0
    1.0360    2.0320    0.5690 H   0  0  0  0  0  0  0  0  0  0  0  0
   -0.7050    1.0900   -0.2700 C   0  0  0  0  0  0  0  0  0  0  0  0
   -1.2070    2.0250   -0.4490 H   0  0  0  0  0  0  0  0  0  0  0  0
   -1.3100   -0.1010   -0.6070 C   0  0  0  0  0  0  0  0  0  0  0  0
   -2.2900   -0.1170   -1.0520 H   0  0  0  0  0  0  0  0  0  0  0  0
   -0.6370   -1.3030   -0.3660 C   0  0  0  0  0  0  0  0  0  0  0  0
   -1.0070   -2.6030   -0.6010 N   0  0  0  0  0  0  0  0  0  0  0  0
   -1.9030   -2.9150   -0.9910 H   0  0  0  0  0  0  0  0  0  0  0  0
  1  2  1  0  0  0  0
  1  3  1  0  0  0  0
  3  4  1  0  0  0  0
  3  5  1  0  0  0  0
  3  6  1  0  0  0  0
  6  7  2  0  0  0  0
  6 19  1  0  0  0  0
  7  8  1  0  0  0  0
  7  9  1  0  0  0  0
  9 10  1  0  0  0  0
  9 18  2  0  0  0  0
 10 11  1  0  0  0  0
 10 12  2  0  0  0  0
 12 13  1  0  0  0  0
 12 14  1  0  0  0  0
 14 15  1  0  0  0  0
 14 16  2  0  0  0  0
 16 17  1  0  0  0  0
 16 18  1  0  0  0  0
 18 19  1  0  0  0  0
 19 20  1  0  0  0  0
M  END
>  <Catalog ID>
Z1251357721

>  <a_acc>
1

>  <a_don>
2

>  <a_heavy>
12

>  <logP>
2.3410001

>  <logS>
-2.33301

>  <TPSA>
36.02

>  <Weight>
181.62199

$$$$
Z45415565
  MOE2024           3D

 24 24  0  0  0  0  0  0  0  0999 V2000
    4.9900   -0.7820   -0.4170 C   0  0  0  0  0  0  0  0  0  0  0  0
    5.6150   -1.6550   -0.4680 H   0  0  0  0  0  0  0  0  0  0  0  0
    5.3300   -0.1630    0.3940 H   0  0  0  0  0  0  0  0  0  0  0  0
    5.0770   -0.2420   -1.3430 H   0  0  0  0  0  0  0  0  0  0  0  0
    3.5390   -1.1970   -0.1860 C   0  0  0  0  0  0  0  0  0  0  0  0
    3.4380   -1.7230    0.7470 H   0  0  0  0  0  0  0  0  0  0  0  0
    3.1840   -1.8060   -1.0000 H   0  0  0  0  0  0  0  0  0  0  0  0
    2.7550   -0.0280   -0.1280 O   0  0  0  0  0  0  0  0  0  0  0  0
    1.4160   -0.0820    0.0690 C   0  0  0  0  0  0  0  0  0  0  0  0
    0.7000   -1.2640    0.2280 C   0  0  0  0  0  0  0  0  0  0  0  0
    1.1880   -2.2200    0.1990 H   0  0  0  0  0  0  0  0  0  0  0  0
   -0.6700   -1.2210    0.4260 C   0  0  0  0  0  0  0  0  0  0  0  0
   -1.2150   -2.1430    0.5470 H   0  0  0  0  0  0  0  0  0  0  0  0
   -1.3600   -0.0140    0.4760 C   0  0  0  0  0  0  0  0  0  0  0  0
   -0.6290    1.1570    0.3110 C   0  0  0  0  0  0  0  0  0  0  0  0
   -1.1350    2.1070    0.3400 H   0  0  0  0  0  0  0  0  0  0  0  0
    0.7400    1.1250    0.1110 C   0  0  0  0  0  0  0  0  0  0  0  0
    1.2960    2.0380   -0.0130 H   0  0  0  0  0  0  0  0  0  0  0  0
   -3.1570    0.0290    0.7190 S   0  0  0  0  0  0  0  0  0  0  0  0
   -3.7880   -0.0800   -0.8050 N   0  0  0  0  0  0  0  0  0  0  0  0
   -4.3210    0.7810   -0.8970 H   0  0  0  0  0  0  0  0  0  0  0  0
   -4.4690   -0.8300   -0.7200 H   0  0  0  0  0  0  0  0  0  0  0  0
   -3.6170    1.3260    1.1510 O   0  0  0  0  0  0  0  0  0  0  0  0
   -3.6470   -1.1720    1.3500 O   0  0  0  0  0  0  0  0  0  0  0  0
  1  2  1  0  0  0  0
  1  3  1  0  0  0  0
  1  4  1  0  0  0  0
  1  5  1  0  0  0  0
  5  6  1  0  0  0  0
  5  7  1  0  0  0  0
  5  8  1  0  0  0  0
  8  9  1  0  0  0  0
  9 10  1  0  0  0  0
  9 17  2  0  0  0  0
 10 11  1  0  0  0  0
 10 12  2  0  0  0  0
 12 13  1  0  0  0  0
 12 14  1  0  0  0  0
 14 15  2  0  0  0  0
 14 19  1  0  0  0  0
 15 16  1  0  0  0  0
 15 17  1  0  0  0  0
 17 18  1  0  0  0  0
 19 20  1  0  0  0  0
 19 23  2  0  0  0  0
 19 24  2  0  0  0  0
 20 21  1  0  0  0  0
 20 22  1  0  0  0  0
M  END
>  <Catalog ID>
Z45415565

>  <a_acc>
3

>  <a_don>
1

>  <a_heavy>
13

>  <logP>
0.63099998

>  <logS>
-1.98908

>  <TPSA>
69.389999

>  <Weight>
201.246

$$$$
Z119989626
  MOE2024           3D

 21 22  0  0  0  0  0  0  0  0999 V2000
    2.8820    0.0290    0.0040 C   0  0  0  0  0  0  0  0  0  0  0  0
    3.2340   -0.9860    0.0040 H   0  0  0  0  0  0  0  0  0  0  0  0
    3.2590    0.5290    0.8780 H   0  0  0  0  0  0  0  0  0  0  0  0
    3.2610    0.5280   -0.8700 H   0  0  0  0  0  0  0  0  0  0  0  0
    1.3660    0.0800    0.0020 C   0  0  0  0  0  0  0  0  0  0  0  0
    0.6010   -1.0660    0.0010 C   0  0  0  0  0  0  0  0  0  0  0  0
    1.0680   -2.0330    0.0020 H   0  0  0  0  0  0  0  0  0  0  0  0
   -0.7990   -0.9960    0.0000 C   0  0  0  0  0  0  0  0  0  0  0  0
   -1.3680   -1.9090    0.0000 H   0  0  0  0  0  0  0  0  0  0  0  0
   -1.4380    0.2210   -0.0010 C   0  0  0  0  0  0  0  0  0  0  0  0
   -2.5110    0.2920   -0.0020 H   0  0  0  0  0  0  0  0  0  0  0  0
   -0.6680    1.3860    0.0000 C   0  0  0  0  0  0  0  0  0  0  0  0
   -1.0360    2.7070   -0.0010 N   0  0  0  0  0  0  0  0  0  0  0  0
   -1.9780    3.1170   -0.0010 H   0  0  0  0  0  0  0  0  0  0  0  0
    0.0840    3.4890    0.0010 C   0  0  0  0  0  0  0  0  0  0  0  0
    1.1700    2.6630    0.0020 C   0  0  0  0  0  0  0  0  0  0  0  0
    2.1990    2.9760    0.0030 H   0  0  0  0  0  0  0  0  0  0  0  0
    0.7220    1.3260    0.0010 C   0  0  0  0  0  0  0  0  0  0  0  0
   -0.0530    4.9210    0.0000 C   0  0  0  0  0  0  0  0  0  0  0  0
   -1.1980    5.4090   -0.0010 O   0  5  0  0  0  0  0  0  0  0  0  0
    0.9410    5.6650    0.0010 O   0  0  0  0  0  0  0  0  0  0  0  0
  1  2  1  0  0  0  0
  1  3  1  0  0  0  0
  1  4  1  0  0  0  0
  1  5  1  0  0  0  0
  5  6  1  0  0  0  0
  5 18  2  0  0  0  0
  6  7  1  0  0  0  0
  6  8  2  0  0  0  0
  8  9  1  0  0  0  0
  8 10  1  0  0  0  0
 10 11  1  0  0  0  0
 10 12  2  0  0  0  0
 12 13  1  0  0  0  0
 12 18  1  0  0  0  0
 13 14  1  0  0  0  0
 13 15  1  0  0  0  0
 15 16  2  0  0  0  0
 15 19  1  0  0  0  0
 16 17  1  0  0  0  0
 16 18  1  0  0  0  0
 19 20  1  0  0  0  0
 19 21  2  0  0  0  0
M  CHG  1  20  -1
M  END
>  <Catalog ID>
Z119989626

>  <a_acc>
0

>  <a_don>
1

>  <a_heavy>
13

>  <logP>
2.3670001

>  <logS>
-2.5314701

>  <TPSA>
55.919998

>  <Weight>
174.179

$$$$
Z199451530
  MOE2024           3D

 31 32  0  0  0  0  0  0  0  0999 V2000
    3.4000   -2.9630   -1.4010 N   0  3  0  0  0  0  0  0  0  0  0  0
    4.1620   -2.5980   -1.9830 H   0  0  0  0  0  0  0  0  0  0  0  0
    2.8630   -3.6470   -1.9440 H   0  0  0  0  0  0  0  0  0  0  0  0
    3.8020   -3.4570   -0.5960 H   0  0  0  0  0  0  0  0  0  0  0  0
    2.5000   -1.8730   -0.9270 C   0  0  0  0  0  0  0  0  0  0  0  0
    2.0880   -1.3520   -1.7770 H   0  0  0  0  0  0  0  0  0  0  0  0
    3.0730   -1.1560   -0.3610 H   0  0  0  0  0  0  0  0  0  0  0  0
    1.3240   -2.3530   -0.0430 C   0  0  0  0  0  0  0  0  0  0  0  0
    1.8000   -3.1500    1.1890 C   0  0  0  0  0  0  0  0  0  0  0  0
    1.0580   -3.0520    1.9660 H   0  0  0  0  0  0  0  0  0  0  0  0
    2.7390   -2.8020    1.5830 H   0  0  0  0  0  0  0  0  0  0  0  0
    1.8510   -4.6310    0.7950 C   0  0  0  0  0  0  0  0  0  0  0  0
    1.4630   -5.2400    1.5960 H   0  0  0  0  0  0  0  0  0  0  0  0
    2.8590   -4.9500    0.5970 H   0  0  0  0  0  0  0  0  0  0  0  0
    0.9820   -4.7760   -0.4570 C   0  0  0  0  0  0  0  0  0  0  0  0
    0.1710   -5.4640   -0.2770 H   0  0  0  0  0  0  0  0  0  0  0  0
    1.5610   -5.1580   -1.2790 H   0  0  0  0  0  0  0  0  0  0  0  0
    0.4290   -3.3800   -0.7640 C   0  0  0  0  0  0  0  0  0  0  0  0
    0.3450   -3.2000   -1.8220 H   0  0  0  0  0  0  0  0  0  0  0  0
   -0.5610   -3.3290   -0.3390 H   0  0  0  0  0  0  0  0  0  0  0  0
    0.5700   -1.0700    0.3360 C   0  0  0  0  0  0  0  0  0  0  0  0
    0.9220   -0.3430    1.4700 C   0  0  0  0  0  0  0  0  0  0  0  0
    1.7110   -0.6690    2.1250 H   0  0  0  0  0  0  0  0  0  0  0  0
    0.2620    0.8280    1.7970 C   0  0  0  0  0  0  0  0  0  0  0  0
    0.5400    1.3770    2.6810 H   0  0  0  0  0  0  0  0  0  0  0  0
   -0.7570    1.2980    0.9920 C   0  0  0  0  0  0  0  0  0  0  0  0
   -1.2730    2.2080    1.2480 H   0  0  0  0  0  0  0  0  0  0  0  0
   -1.1140    0.5930   -0.1410 C   0  0  0  0  0  0  0  0  0  0  0  0
   -1.9100    0.9590   -0.7680 H   0  0  0  0  0  0  0  0  0  0  0  0
   -0.4540   -0.5780   -0.4670 C   0  0  0  0  0  0  0  0  0  0  0  0
   -0.7640   -1.0910   -1.3600 H   0  0  0  0  0  0  0  0  0  0  0  0
  1  2  1  0  0  0  0
  1  3  1  0  0  0  0
  1  4  1  0  0  0  0
  1  5  1  0  0  0  0
  5  6  1  0  0  0  0
  5  7  1  0  0  0  0
  5  8  1  0  0  0  0
  8  9  1  0  0  0  0
  8 18  1  0  0  0  0
  8 21  1  0  0  0  0
  9 10  1  0  0  0  0
  9 11  1  0  0  0  0
  9 12  1  0  0  0  0
 12 13  1  0  0  0  0
 12 14  1  0  0  0  0
 12 15  1  0  0  0  0
 15 16  1  0  0  0  0
 15 17  1  0  0  0  0
 15 18  1  0  0  0  0
 18 19  1  0  0  0  0
 18 20  1  0  0  0  0
 21 22  1  0  0  0  0
 21 30  2  0  0  0  0
 22 23  1  0  0  0  0
 22 24  2  0  0  0  0
 24 25  1  0  0  0  0
 24 26  1  0  0  0  0
 26 27  1  0  0  0  0
 26 28  2  0  0  0  0
 28 29  1  0  0  0  0
 28 30  1  0  0  0  0
 30 31  1  0  0  0  0
M  CHG  1   1   1
M  END
>  <Catalog ID>
Z199451530

>  <a_acc>
0

>  <a_don>
0

>  <a_heavy>
13

>  <logP>
2.3659999

>  <logS>
-2.4188199

>  <TPSA>
27.639999

>  <Weight>
176.28299

$$$$
Z728884102
  MOE2024           3D

 30 31  0  0  1  0  0  0  0  0999 V2000
    3.4190   -1.0860    0.7910 C   0  0  0  0  0  0  0  0  0  0  0  0
    4.4900   -0.9910    0.7600 H   0  0  0  0  0  0  0  0  0  0  0  0
    3.1680   -2.0540    0.3980 H   0  0  0  0  0  0  0  0  0  0  0  0
    3.1120   -1.0200    1.8200 H   0  0  0  0  0  0  0  0  0  0  0  0
    2.7970    0.0340   -0.0340 C   0  0  0  0  0  0  0  0  0  0  0  0
    3.0960   -0.0530   -1.0670 H   0  0  0  0  0  0  0  0  0  0  0  0
    3.1540    0.9800    0.3430 H   0  0  0  0  0  0  0  0  0  0  0  0
    1.3190   -0.0230    0.0810 N   0  3  2  0  0  0  0  0  0  0  0  0
    1.0590   -0.1210    1.0720 H   0  0  0  0  0  0  0  0  0  0  0  0
    0.7050   -1.1670   -0.6560 C   0  0  0  0  0  0  0  0  0  0  0  0
    0.7580   -0.9790   -1.7160 H   0  0  0  0  0  0  0  0  0  0  0  0
    1.2340   -2.0820   -0.4480 H   0  0  0  0  0  0  0  0  0  0  0  0
   -0.7600   -1.3350   -0.2490 C   0  0  0  0  0  0  0  0  0  0  0  0
   -1.2540   -1.9330   -0.9940 H   0  0  0  0  0  0  0  0  0  0  0  0
   -0.8070   -1.8780    0.6790 H   0  0  0  0  0  0  0  0  0  0  0  0
   -1.4980   -0.0100   -0.0730 C   0  0  0  0  0  0  0  0  0  0  0  0
   -2.8710   -0.0160    0.1740 C   0  0  0  0  0  0  0  0  0  0  0  0
   -3.5920   -1.1960    0.2350 N   0  0  0  0  0  0  0  0  0  0  0  0
   -3.4690   -1.8390   -0.5520 H   0  0  0  0  0  0  0  0  0  0  0  0
   -4.5900   -1.0860    0.4430 H   0  0  0  0  0  0  0  0  0  0  0  0
   -3.5310    1.1880    0.3740 C   0  0  0  0  0  0  0  0  0  0  0  0
   -4.5870    1.1890    0.5730 H   0  0  0  0  0  0  0  0  0  0  0  0
   -2.8450    2.3850    0.3220 C   0  0  0  0  0  0  0  0  0  0  0  0
   -3.3720    3.3120    0.4760 H   0  0  0  0  0  0  0  0  0  0  0  0
   -1.4860    2.3900    0.0730 C   0  0  0  0  0  0  0  0  0  0  0  0
   -0.9710    3.3360    0.0370 H   0  0  0  0  0  0  0  0  0  0  0  0
   -0.8060    1.1960   -0.1210 C   0  0  0  0  0  0  0  0  0  0  0  0
    0.6900    1.2460   -0.3750 C   0  0  0  0  0  0  0  0  0  0  0  0
    1.1120    2.0790    0.1630 H   0  0  0  0  0  0  0  0  0  0  0  0
    0.8690    1.3920   -1.4270 H   0  0  0  0  0  0  0  0  0  0  0  0
  1  2  1  0  0  0  0
  1  3  1  0  0  0  0
  1  4  1  0  0  0  0
  1  5  1  0  0  0  0
  5  6  1  0  0  0  0
  5  7  1  0  0  0  0
  5  8  1  0  0  0  0
  8  9  1  0  0  0  0
  8 10  1  0  0  0  0
  8 28  1  0  0  0  0
 10 11  1  0  0  0  0
 10 12  1  0  0  0  0
 10 13  1  0  0  0  0
 13 14  1  0  0  0  0
 13 15  1  0  0  0  0
 13 16  1  0  0  0  0
 16 17  2  0  0  0  0
 16 27  1  0  0  0  0
 17 18  1  0  0  0  0
 17 21  1  0  0  0  0
 18 19  1  0  0  0  0
 18 20  1  0  0  0  0
 21 22  1  0  0  0  0
 21 23  2  0  0  0  0
 23 24  1  0  0  0  0
 23 25  1  0  0  0  0
 25 26  1  0  0  0  0
 25 27  2  0  0  0  0
 27 28  1  0  0  0  0
 28 29  1  0  0  0  0
 28 30  1  0  0  0  0
M  CHG  1   8   1
M  END
>  <Catalog ID>
Z728884102

>  <a_acc>
0

>  <a_don>
1

>  <a_heavy>
13

>  <logP>
1.528

>  <logS>
-1.4639

>  <TPSA>
30.459999

>  <Weight>
177.271

$$$$
Z1203162033
  MOE2024           3D

 22 22  0  0  0  0  0  0  0  0999 V2000
    2.9310   -1.5700    0.6930 C   0  0  0  0  0  0  0  0  0  0  0  0
    3.9430   -1.4820    1.0420 H   0  0  0  0  0  0  0  0  0  0  0  0
    2.8850   -2.2540   -0.1360 H   0  0  0  0  0  0  0  0  0  0  0  0
    2.2930   -1.9030    1.4940 H   0  0  0  0  0  0  0  0  0  0  0  0
    2.4970   -0.2970    0.2610 O   0  0  0  0  0  0  0  0  0  0  0  0
    1.2000   -0.1220   -0.1320 C   0  0  0  0  0  0  0  0  0  0  0  0
    0.3020   -1.1700   -0.3100 C   0  0  0  0  0  0  0  0  0  0  0  0
    0.5970   -2.1910   -0.1550 H   0  0  0  0  0  0  0  0  0  0  0  0
   -1.0090   -0.9220   -0.6930 C   0  0  0  0  0  0  0  0  0  0  0  0
   -1.4260    0.3850   -0.9030 C   0  0  0  0  0  0  0  0  0  0  0  0
   -2.4420    0.5830   -1.1940 H   0  0  0  0  0  0  0  0  0  0  0  0
   -0.5410    1.4380   -0.7380 C   0  0  0  0  0  0  0  0  0  0  0  0
   -0.8560    2.4510   -0.9000 H   0  0  0  0  0  0  0  0  0  0  0  0
    0.7630    1.1800   -0.3560 C   0  0  0  0  0  0  0  0  0  0  0  0
    1.6290    2.1950   -0.1940 O   0  0  0  0  0  0  0  0  0  0  0  0
    2.4880    1.8210    0.0840 H   0  0  0  0  0  0  0  0  0  0  0  0
   -1.9800   -2.0880   -0.8910 C   0  0  0  0  0  0  0  0  0  0  0  0
   -1.7120   -2.6160   -1.7850 H   0  0  0  0  0  0  0  0  0  0  0  0
   -2.9790   -1.7200   -1.0140 H   0  0  0  0  0  0  0  0  0  0  0  0
   -2.0090   -3.1010    0.2390 C   0  0  0  0  0  0  0  0  0  0  0  0
   -2.9460   -3.0690    1.0430 O   0  5  0  0  0  0  0  0  0  0  0  0
   -1.1190   -3.9600    0.2950 O   0  0  0  0  0  0  0  0  0  0  0  0
  1  2  1  0  0  0  0
  1  3  1  0  0  0  0
  1  4  1  0  0  0  0
  1  5  1  0  0  0  0
  5  6  1  0  0  0  0
  6  7  1  0  0  0  0
  6 14  2  0  0  0  0
  7  8  1  0  0  0  0
  7  9  2  0  0  0  0
  9 10  1  0  0  0  0
  9 17  1  0  0  0  0
 10 11  1  0  0  0  0
 10 12  2  0  0  0  0
 12 13  1  0  0  0  0
 12 14  1  0  0  0  0
 14 15  1  0  0  0  0
 15 16  1  0  0  0  0
 17 18  1  0  0  0  0
 17 19  1  0  0  0  0
 17 20  1  0  0  0  0
 20 21  1  0  0  0  0
 20 22  2  0  0  0  0
M  CHG  1  21  -1
M  END
>  <Catalog ID>
Z1203162033

>  <a_acc>
2

>  <a_don>
1

>  <a_heavy>
13

>  <logP>
1.475

>  <logS>
-1.36463

>  <TPSA>
69.589996

>  <Weight>
181.16699

$$$$
Z1255374820
  MOE2024           3D

 24 25  0  0  0  0  0  0  0  0999 V2000
   -0.3620   -3.9740    0.9310 C   0  0  0  0  0  0  0  0  0  0  0  0
   -0.4060   -4.9530    1.3720 H   0  0  0  0  0  0  0  0  0  0  0  0
   -1.0470   -3.9330    0.1040 H   0  0  0  0  0  0  0  0  0  0  0  0
   -0.6500   -3.2460    1.6660 H   0  0  0  0  0  0  0  0  0  0  0  0
    1.0430   -3.6870    0.4460 C   0  0  0  0  0  0  0  0  0  0  0  0
    1.9730   -4.5640    0.3830 N   0  0  0  0  0  0  0  0  0  0  0  0
    3.0750   -4.0060   -0.0690 O   0  0  0  0  0  0  0  0  0  0  0  0
    2.7840   -2.7410   -0.2830 C   0  0  0  0  0  0  0  0  0  0  0  0
    3.8730   -1.8340   -0.8200 C   0  0  0  0  0  0  0  0  0  0  0  0
    4.2280   -2.2130   -1.7610 H   0  0  0  0  0  0  0  0  0  0  0  0
    4.6930   -1.8010   -0.1250 H   0  0  0  0  0  0  0  0  0  0  0  0
    3.4960   -0.8380   -0.9650 H   0  0  0  0  0  0  0  0  0  0  0  0
    1.5040   -2.4530    0.0190 C   0  0  0  0  0  0  0  0  0  0  0  0
    0.7670   -1.2140   -0.0600 C   0  0  0  0  0  0  0  0  0  0  0  0
    1.0640   -0.1540    0.7890 C   0  0  0  0  0  0  0  0  0  0  0  0
    1.8530   -0.2670    1.5110 H   0  0  0  0  0  0  0  0  0  0  0  0
    0.3590    1.0350    0.7190 C   0  0  0  0  0  0  0  0  0  0  0  0
    0.6010    1.8460    1.3840 H   0  0  0  0  0  0  0  0  0  0  0  0
   -0.6580    1.1810   -0.2070 C   0  0  0  0  0  0  0  0  0  0  0  0
   -1.2080    2.1050   -0.2640 H   0  0  0  0  0  0  0  0  0  0  0  0
   -0.9670    0.1360   -1.0610 C   0  0  0  0  0  0  0  0  0  0  0  0
   -1.7570    0.2480   -1.7830 H   0  0  0  0  0  0  0  0  0  0  0  0
   -0.2590   -1.0500   -0.9850 C   0  0  0  0  0  0  0  0  0  0  0  0
   -0.4970   -1.8590   -1.6520 H   0  0  0  0  0  0  0  0  0  0  0  0
  1  2  1  0  0  0  0
  1  3  1  0  0  0  0
  1  4  1  0  0  0  0
  1  5  1  0  0  0  0
  5  6  2  0  0  0  0
  5 13  1  0  0  0  0
  6  7  1  0  0  0  0
  7  8  1  0  0  0  0
  8  9  1  0  0  0  0
  8 13  2  0  0  0  0
  9 10  1  0  0  0  0
  9 11  1  0  0  0  0
  9 12  1  0  0  0  0
 13 14  1  0  0  0  0
 14 15  1  0  0  0  0
 14 23  2  0  0  0  0
 15 16  1  0  0  0  0
 15 17  2  0  0  0  0
 17 18  1  0  0  0  0
 17 19  1  0  0  0  0
 19 20  1  0  0  0  0
 19 21  2  0  0  0  0
 21 22  1  0  0  0  0
 21 23  1  0  0  0  0
 23 24  1  0  0  0  0
M  END
>  <Catalog ID>
Z1255374820

>  <a_acc>
1

>  <a_don>
0

>  <a_heavy>
13

>  <logP>
2.6270001

>  <logS>
-3.0843899

>  <TPSA>
26.030001

>  <Weight>
173.215

$$$$
Z271005928
  MOE2024           3D

 34 35  0  0  1  0  0  0  0  0999 V2000
   -5.0050   -6.3540   -0.4090 N   0  3  0  0  0  0  0  0  0  0  0  0
   -5.4410   -7.2810   -0.2960 H   0  0  0  0  0  0  0  0  0  0  0  0
   -5.0670   -6.1210   -1.4090 H   0  0  0  0  0  0  0  0  0  0  0  0
   -5.5950   -5.6880    0.1060 H   0  0  0  0  0  0  0  0  0  0  0  0
   -3.6010   -6.3660    0.0820 C   0  0  0  0  0  0  0  0  0  0  0  0
   -3.5860   -6.6410    1.1260 H   0  0  0  0  0  0  0  0  0  0  0  0
   -3.0360   -7.1060   -0.4660 H   0  0  0  0  0  0  0  0  0  0  0  0
   -2.9570   -4.9830   -0.1010 C   0  0  0  0  0  0  0  0  0  0  0  0
   -3.5130   -4.2600    0.4690 H   0  0  0  0  0  0  0  0  0  0  0  0
   -2.9870   -4.7190   -1.1440 H   0  0  0  0  0  0  0  0  0  0  0  0
   -1.4910   -4.9840    0.3650 C   0  0  0  0  0  0  0  0  0  0  0  0
   -0.9630   -5.7730   -0.1470 H   0  0  0  0  0  0  0  0  0  0  0  0
   -1.4330   -5.1790    1.4250 H   0  0  0  0  0  0  0  0  0  0  0  0
   -0.8300   -3.6840    0.0560 N   0  3  2  0  0  0  0  0  0  0  0  0
   -1.0410   -3.3790   -0.9060 H   0  0  0  0  0  0  0  0  0  0  0  0
    0.6630   -3.7860    0.1320 C   0  0  0  0  0  0  0  0  0  0  0  0
    0.9720   -3.8140    1.1650 H   0  0  0  0  0  0  0  0  0  0  0  0
    1.0090   -4.6870   -0.3490 H   0  0  0  0  0  0  0  0  0  0  0  0
    1.3090   -2.5770   -0.5520 C   0  0  0  0  0  0  0  0  0  0  0  0
    2.3350   -2.5030   -0.2340 H   0  0  0  0  0  0  0  0  0  0  0  0
    1.3140   -2.7320   -1.6160 H   0  0  0  0  0  0  0  0  0  0  0  0
    0.5840   -1.2740   -0.2460 C   0  0  0  0  0  0  0  0  0  0  0  0
    1.1400   -0.0800   -0.6760 C   0  0  0  0  0  0  0  0  0  0  0  0
    2.0750   -0.0700   -1.2100 H   0  0  0  0  0  0  0  0  0  0  0  0
    0.5000    1.1200   -0.4240 C   0  0  0  0  0  0  0  0  0  0  0  0
    0.9360    2.0450   -0.7600 H   0  0  0  0  0  0  0  0  0  0  0  0
   -0.7010    1.1310    0.2590 C   0  0  0  0  0  0  0  0  0  0  0  0
   -1.1960    2.0680    0.4550 H   0  0  0  0  0  0  0  0  0  0  0  0
   -1.2620   -0.0570    0.6910 C   0  0  0  0  0  0  0  0  0  0  0  0
   -2.1970   -0.0180    1.2260 H   0  0  0  0  0  0  0  0  0  0  0  0
   -0.6260   -1.2640    0.4410 C   0  0  0  0  0  0  0  0  0  0  0  0
   -1.2630   -2.5510    0.9320 C   0  0  0  0  0  0  0  0  0  0  0  0
   -2.3330   -2.4410    0.9030 H   0  0  0  0  0  0  0  0  0  0  0  0
   -0.9620   -2.7290    1.9510 H   0  0  0  0  0  0  0  0  0  0  0  0
  1  2  1  0  0  0  0
  1  3  1  0  0  0  0
  1  4  1  0  0  0  0
  1  5  1  0  0  0  0
  5  6  1  0  0  0  0
  5  7  1  0  0  0  0
  5  8  1  0  0  0  0
  8  9  1  0  0  0  0
  8 10  1  0  0  0  0
  8 11  1  0  0  0  0
 11 12  1  0  0  0  0
 11 13  1  0  0  0  0
 11 14  1  0  0  0  0
 14 15  1  0  0  0  0
 14 16  1  0  0  0  0
 14 32  1  0  0  0  0
 16 17  1  0  0  0  0
 16 18  1  0  0  0  0
 16 19  1  0  0  0  0
 19 20  1  0  0  0  0
 19 21  1  0  0  0  0
 19 22  1  0  0  0  0
 22 23  1  0  0  0  0
 22 31  2  0  0  0  0
 23 24  1  0  0  0  0
 23 25  2  0  0  0  0
 25 26  1  0  0  0  0
 25 27  1  0  0  0  0
 27 28  1  0  0  0  0
 27 29  2  0  0  0  0
 29 30  1  0  0  0  0
 29 31  1  0  0  0  0
 31 32  1  0  0  0  0
 32 33  1  0  0  0  0
 32 34  1  0  0  0  0
M  CHG  1   1   1
M  CHG  1  14   1
M  END
>  <Catalog ID>
Z271005928

>  <a_acc>
0

>  <a_don>
0

>  <a_heavy>
14

>  <logP>
1.387

>  <logS>
-1.28455

>  <TPSA>
32.080002

>  <Weight>
192.306

$$$$
Z1096153758
  MOE2024           3D

 22 23  0  0  0  0  0  0  0  0999 V2000
    3.3860   -1.1200    0.0030 C   0  0  0  0  0  0  0  0  0  0  0  0
    4.4290   -0.8620   -0.0010 H   0  0  0  0  0  0  0  0  0  0  0  0
    3.1470   -1.6880   -0.8800 H   0  0  0  0  0  0  0  0  0  0  0  0
    3.1500   -1.6730    0.8950 H   0  0  0  0  0  0  0  0  0  0  0  0
    2.6390    0.0760   -0.0070 O   0  0  0  0  0  0  0  0  0  0  0  0
    1.2760    0.0530   -0.0030 C   0  0  0  0  0  0  0  0  0  0  0  0
    0.5260   -1.1410    0.0040 C   0  0  0  0  0  0  0  0  0  0  0  0
    1.0150   -2.0950    0.0070 H   0  0  0  0  0  0  0  0  0  0  0  0
   -0.8500   -1.1030    0.0080 C   0  0  0  0  0  0  0  0  0  0  0  0
   -1.4360   -2.0040    0.0130 H   0  0  0  0  0  0  0  0  0  0  0  0
   -1.4930    0.1370    0.0040 C   0  0  0  0  0  0  0  0  0  0  0  0
   -2.8270    0.4610    0.0060 N   0  0  0  0  0  0  0  0  0  0  0  0
   -3.6450   -0.1600    0.0110 H   0  0  0  0  0  0  0  0  0  0  0  0
   -2.9620    1.8200    0.0000 C   0  0  0  0  0  0  0  0  0  0  0  0
   -1.7110    2.3660   -0.0050 C   0  0  0  0  0  0  0  0  0  0  0  0
   -1.4790    3.4160   -0.0110 H   0  0  0  0  0  0  0  0  0  0  0  0
   -0.7660    1.3210   -0.0030 C   0  0  0  0  0  0  0  0  0  0  0  0
    0.6320    1.2700   -0.0070 C   0  0  0  0  0  0  0  0  0  0  0  0
    1.1900    2.1860   -0.0120 H   0  0  0  0  0  0  0  0  0  0  0  0
   -4.2810    2.3950    0.0010 C   0  0  0  0  0  0  0  0  0  0  0  0
   -5.2630    1.6290    0.0070 O   0  5  0  0  0  0  0  0  0  0  0  0
   -4.4510    3.6240   -0.0040 O   0  0  0  0  0  0  0  0  0  0  0  0
  1  2  1  0  0  0  0
  1  3  1  0  0  0  0
  1  4  1  0  0  0  0
  1  5  1  0  0  0  0
  5  6  1  0  0  0  0
  6  7  1  0  0  0  0
  6 18  2  0  0  0  0
  7  8  1  0  0  0  0
  7  9  2  0  0  0  0
  9 10  1  0  0  0  0
  9 11  1  0  0  0  0
 11 12  1  0  0  0  0
 11 17  2  0  0  0  0
 12 13  1  0  0  0  0
 12 14  1  0  0  0  0
 14 15  2  0  0  0  0
 14 20  1  0  0  0  0
 15 16  1  0  0  0  0
 15 17  1  0  0  0  0
 17 18  1  0  0  0  0
 18 19  1  0  0  0  0
 20 21  1  0  0  0  0
 20 22  2  0  0  0  0
M  CHG  1  21  -1
M  END
>  <Catalog ID>
Z1096153758

>  <a_acc>
1

>  <a_don>
1

>  <a_heavy>
14

>  <logP>
2.0639999

>  <logS>
-2.1079299

>  <TPSA>
65.150002

>  <Weight>
190.17799

$$$$
Z385412938
  MOE2024           3D

 23 24  0  0  0  0  0  0  0  0999 V2000
    2.6700   -2.5990    0.1720 O   0  0  0  0  0  0  0  0  0  0  0  0
    1.4630   -2.6130    0.0540 C   0  0  0  0  0  0  0  0  0  0  0  0
    0.7430   -1.3610   -0.0630 C   0  0  0  0  0  0  0  0  0  0  0  0
    1.1850   -0.2030    0.5610 C   0  0  0  0  0  0  0  0  0  0  0  0
    2.0920   -0.2260    1.1400 H   0  0  0  0  0  0  0  0  0  0  0  0
    0.4740    0.9750    0.4420 C   0  0  0  0  0  0  0  0  0  0  0  0
    0.8430    1.8560    0.9410 H   0  0  0  0  0  0  0  0  0  0  0  0
   -0.6450    1.1080   -0.2500 N   0  0  0  0  0  0  0  0  0  0  0  0
   -1.0630    0.0130   -0.8600 C   0  0  0  0  0  0  0  0  0  0  0  0
   -1.9670    0.1000   -1.4400 H   0  0  0  0  0  0  0  0  0  0  0  0
   -0.4240   -1.2100   -0.8030 C   0  0  0  0  0  0  0  0  0  0  0  0
   -0.8360   -2.0430   -1.3420 H   0  0  0  0  0  0  0  0  0  0  0  0
    0.7610   -3.8800    0.0300 C   0  0  0  0  0  0  0  0  0  0  0  0
   -0.4760   -4.0530    0.6650 C   0  0  0  0  0  0  0  0  0  0  0  0
   -0.9180   -3.2310    1.2020 H   0  0  0  0  0  0  0  0  0  0  0  0
   -1.1430   -5.2650    0.6270 C   0  0  0  0  0  0  0  0  0  0  0  0
   -2.0940   -5.3980    1.1130 H   0  0  0  0  0  0  0  0  0  0  0  0
   -0.5630   -6.3200   -0.0500 C   0  0  0  0  0  0  0  0  0  0  0  0
   -1.1880   -7.4630   -0.0920 F   0  0  0  0  0  0  0  0  0  0  0  0
    0.6600   -6.2010   -0.6800 C   0  0  0  0  0  0  0  0  0  0  0  0
    1.0870   -7.0450   -1.1920 H   0  0  0  0  0  0  0  0  0  0  0  0
    1.3130   -4.9820   -0.6320 C   0  0  0  0  0  0  0  0  0  0  0  0
    2.2720   -4.8720   -1.1110 H   0  0  0  0  0  0  0  0  0  0  0  0
  1  2  2  0  0  0  0
  2  3  1  0  0  0  0
  2 13  1  0  0  0  0
  3  4  1  0  0  0  0
  3 11  2  0  0  0  0
  4  5  1  0  0  0  0
  4  6  2  0  0  0  0
  6  7  1  0  0  0  0
  6  8  1  0  0  0  0
  8  9  2  0  0  0  0
  9 10  1  0  0  0  0
  9 11  1  0  0  0  0
 11 12  1  0  0  0  0
 13 14  1  0  0  0  0
 13 22  2  0  0  0  0
 14 15  1  0  0  0  0
 14 16  2  0  0  0  0
 16 17  1  0  0  0  0
 16 18  1  0  0  0  0
 18 19  1  0  0  0  0
 18 20  2  0  0  0  0
 20 21  1  0  0  0  0
 20 22  1  0  0  0  0
 22 23  1  0  0  0  0
M  END
>  <Catalog ID>
Z385412938

>  <a_acc>
2

>  <a_don>
0

>  <a_heavy>
15

>  <logP>
2.342

>  <logS>
-2.49453

>  <TPSA>
29.959999

>  <Weight>
201.2

$$$$
Z335290460
  MOE2024           3D

 27 28  0  0  0  0  0  0  0  0999 V2000
   -2.4550   -3.0890   -0.0030 C   0  0  0  0  0  0  0  0  0  0  0  0
   -2.4760   -4.1630   -0.0030 H   0  0  0  0  0  0  0  0  0  0  0  0
   -2.9500   -2.7180   -0.8810 H   0  0  0  0  0  0  0  0  0  0  0  0
   -2.9480   -2.7190    0.8770 H   0  0  0  0  0  0  0  0  0  0  0  0
   -1.0610   -2.6250   -0.0040 N   0  0  0  0  0  0  0  0  0  0  0  0
    0.0470   -3.4220   -0.0040 C   0  0  0  0  0  0  0  0  0  0  0  0
   -0.0210   -4.4950   -0.0040 H   0  0  0  0  0  0  0  0  0  0  0  0
    1.1660   -2.6580   -0.0040 C   0  0  0  0  0  0  0  0  0  0  0  0
    2.6290   -3.0860   -0.0040 C   0  0  0  0  0  0  0  0  0  0  0  0
    3.1150   -2.6750    0.8630 H   0  0  0  0  0  0  0  0  0  0  0  0
    3.1140   -2.6770   -0.8740 H   0  0  0  0  0  0  0  0  0  0  0  0
    2.8090   -4.6110   -0.0020 C   0  0  0  0  0  0  0  0  0  0  0  0
    2.3480   -5.0340   -0.8720 H   0  0  0  0  0  0  0  0  0  0  0  0
    2.3480   -5.0300    0.8700 H   0  0  0  0  0  0  0  0  0  0  0  0
    4.2570   -5.0420   -0.0010 C   0  0  0  0  0  0  0  0  0  0  0  0
    5.1540   -4.1920   -0.0030 O   0  5  0  0  0  0  0  0  0  0  0  0
    4.4930   -6.2530    0.0000 O   0  0  0  0  0  0  0  0  0  0  0  0
    0.7520   -1.3080   -0.0040 C   0  0  0  0  0  0  0  0  0  0  0  0
    1.4360   -0.0880   -0.0030 C   0  0  0  0  0  0  0  0  0  0  0  0
    2.5110   -0.0980   -0.0040 H   0  0  0  0  0  0  0  0  0  0  0  0
    0.7260    1.0900   -0.0030 C   0  0  0  0  0  0  0  0  0  0  0  0
    1.2420    2.0330   -0.0030 H   0  0  0  0  0  0  0  0  0  0  0  0
   -0.6740    1.0750   -0.0030 C   0  0  0  0  0  0  0  0  0  0  0  0
   -1.2080    2.0090   -0.0020 H   0  0  0  0  0  0  0  0  0  0  0  0
   -1.3610   -0.1180   -0.0030 C   0  0  0  0  0  0  0  0  0  0  0  0
   -2.4350   -0.1370   -0.0030 H   0  0  0  0  0  0  0  0  0  0  0  0
   -0.6400   -1.3170   -0.0030 C   0  0  0  0  0  0  0  0  0  0  0  0
  1  2  1  0  0  0  0
  1  3  1  0  0  0  0
  1  4  1  0  0  0  0
  1  5  1  0  0  0  0
  5  6  1  0  0  0  0
  5 27  1  0  0  0  0
  6  7  1  0  0  0  0
  6  8  2  0  0  0  0
  8  9  1  0  0  0  0
  8 18  1  0  0  0  0
  9 10  1  0  0  0  0
  9 11  1  0  0  0  0
  9 12  1  0  0  0  0
 12 13  1  0  0  0  0
 12 14  1  0  0  0  0
 12 15  1  0  0  0  0
 15 16  1  0  0  0  0
 15 17  2  0  0  0  0
 18 19  1  0  0  0  0
 18 27  2  0  0  0  0
 19 20  1  0  0  0  0
 19 21  2  0  0  0  0
 21 22  1  0  0  0  0
 21 23  1  0  0  0  0
 23 24  1  0  0  0  0
 23 25  2  0  0  0  0
 25 26  1  0  0  0  0
 25 27  1  0  0  0  0
M  CHG  1  16  -1
M  END
>  <Catalog ID>
Z335290460

>  <a_acc>
0

>  <a_don>
0

>  <a_heavy>
15

>  <logP>
2.6359999

>  <logS>
-1.74203

>  <TPSA>
45.060001

>  <Weight>
202.233

$$$$
Z431983770
  MOE2024           3D

 26 27  0  0  0  0  0  0  0  0999 V2000
   -2.5500   -3.6920   -1.2170 C   0  0  0  0  0  0  0  0  0  0  0  0
   -3.4270   -4.2950   -1.3730 H   0  0  0  0  0  0  0  0  0  0  0  0
   -1.6900   -4.2580   -1.5290 H   0  0  0  0  0  0  0  0  0  0  0  0
   -2.6310   -2.8130   -1.8290 H   0  0  0  0  0  0  0  0  0  0  0  0
   -2.4260   -3.3220    0.2660 C   0  0  0  0  0  0  0  0  0  0  0  0
   -2.3800   -4.2350    0.8330 H   0  0  0  0  0  0  0  0  0  0  0  0
   -3.6410   -2.5230    0.7530 C   0  0  0  0  0  0  0  0  0  0  0  0
   -3.7550   -1.6130    0.1930 H   0  0  0  0  0  0  0  0  0  0  0  0
   -3.5290   -2.2820    1.7950 H   0  0  0  0  0  0  0  0  0  0  0  0
   -4.5360   -3.1070    0.6350 H   0  0  0  0  0  0  0  0  0  0  0  0
   -1.1660   -2.5790    0.5230 N   0  0  0  0  0  0  0  0  0  0  0  0
   -0.1600   -3.0020    1.3340 C   0  0  0  0  0  0  0  0  0  0  0  0
   -0.2170   -3.9400    1.8560 H   0  0  0  0  0  0  0  0  0  0  0  0
    0.8390   -2.1970    1.4170 N   0  0  0  0  0  0  0  0  0  0  0  0
    0.4940   -1.1540    0.6080 C   0  0  0  0  0  0  0  0  0  0  0  0
    1.2030    0.0090    0.3170 C   0  0  0  0  0  0  0  0  0  0  0  0
    2.1670    0.1560    0.7690 H   0  0  0  0  0  0  0  0  0  0  0  0
    0.6820    0.9690   -0.5430 C   0  0  0  0  0  0  0  0  0  0  0  0
   -0.5890    0.7160   -1.1030 C   0  0  0  0  0  0  0  0  0  0  0  0
   -0.9950    1.4590   -1.7700 H   0  0  0  0  0  0  0  0  0  0  0  0
   -1.3020   -0.4270   -0.8250 C   0  0  0  0  0  0  0  0  0  0  0  0
   -2.2660   -0.5830   -1.2710 H   0  0  0  0  0  0  0  0  0  0  0  0
   -0.7500   -1.3730    0.0430 C   0  0  0  0  0  0  0  0  0  0  0  0
    1.4080    2.1930   -0.8610 C   0  0  0  0  0  0  0  0  0  0  0  0
    0.9220    3.0360   -1.6390 O   0  5  0  0  0  0  0  0  0  0  0  0
    2.5250    2.4210   -0.3630 O   0  0  0  0  0  0  0  0  0  0  0  0
  1  2  1  0  0  0  0
  1  3  1  0  0  0  0
  1  4  1  0  0  0  0
  1  5  1  0  0  0  0
  5  6  1  0  0  0  0
  5  7  1  0  0  0  0
  5 11  1  0  0  0  0
  7  8  1  0  0  0  0
  7  9  1  0  0  0  0
  7 10  1  0  0  0  0
 11 12  1  0  0  0  0
 11 23  1  0  0  0  0
 12 13  1  0  0  0  0
 12 14  2  0  0  0  0
 14 15  1  0  0  0  0
 15 16  1  0  0  0  0
 15 23  2  0  0  0  0
 16 17  1  0  0  0  0
 16 18  2  0  0  0  0
 18 19  1  0  0  0  0
 18 24  1  0  0  0  0
 19 20  1  0  0  0  0
 19 21  2  0  0  0  0
 21 22  1  0  0  0  0
 21 23  1  0  0  0  0
 24 25  1  0  0  0  0
 24 26  2  0  0  0  0
M  CHG  1  25  -1
M  END
>  <Catalog ID>
Z431983770

>  <a_acc>
1

>  <a_don>
0

>  <a_heavy>
15

>  <logP>
2.316

>  <logS>
-2.58286

>  <TPSA>
57.950001

>  <Weight>
203.22099

$$$$
Z56862720
  MOE2024           3D

 25 26  0  0  0  0  0  0  0  0999 V2000
    2.0010   -7.8890   -0.5050 O   0  5  0  0  0  0  0  0  0  0  0  0
    1.5190   -7.4340    0.5360 C   0  0  0  0  0  0  0  0  0  0  0  0
    1.6400   -7.9950    1.6280 O   0  0  0  0  0  0  0  0  0  0  0  0
    0.7420   -6.1390    0.4810 C   0  0  0  0  0  0  0  0  0  0  0  0
    0.7090   -5.7340    1.4750 H   0  0  0  0  0  0  0  0  0  0  0  0
   -0.2580   -6.3750    0.1730 H   0  0  0  0  0  0  0  0  0  0  0  0
    1.3680   -5.1090   -0.4800 C   0  0  0  0  0  0  0  0  0  0  0  0
    1.3470   -5.5000   -1.4830 H   0  0  0  0  0  0  0  0  0  0  0  0
    2.4010   -4.9730   -0.2120 H   0  0  0  0  0  0  0  0  0  0  0  0
    0.6550   -3.7620   -0.4410 C   0  0  0  0  0  0  0  0  0  0  0  0
    1.2110   -2.8050    0.2240 N   0  0  0  0  0  0  0  0  0  0  0  0
    0.5610   -1.5800    0.2690 C   0  0  0  0  0  0  0  0  0  0  0  0
    1.1350   -0.5310    0.9780 C   0  0  0  0  0  0  0  0  0  0  0  0
    2.0730   -0.7030    1.4740 H   0  0  0  0  0  0  0  0  0  0  0  0
    0.5170    0.7020    1.0470 C   0  0  0  0  0  0  0  0  0  0  0  0
    0.9730    1.5060    1.6000 H   0  0  0  0  0  0  0  0  0  0  0  0
   -0.6950    0.9090    0.4020 C   0  0  0  0  0  0  0  0  0  0  0  0
   -1.1710    1.8730    0.4590 H   0  0  0  0  0  0  0  0  0  0  0  0
   -1.2830   -0.1170   -0.3090 C   0  0  0  0  0  0  0  0  0  0  0  0
   -2.2210    0.0440   -0.8090 H   0  0  0  0  0  0  0  0  0  0  0  0
   -0.6680   -1.3640   -0.3840 C   0  0  0  0  0  0  0  0  0  0  0  0
   -1.2340   -2.4140   -1.0930 N   0  0  0  0  0  0  0  0  0  0  0  0
   -2.1160   -2.3330   -1.5940 H   0  0  0  0  0  0  0  0  0  0  0  0
   -0.6040   -3.6220   -1.1560 C   0  0  0  0  0  0  0  0  0  0  0  0
   -1.1510   -4.4850   -1.8240 O   0  0  0  0  0  0  0  0  0  0  0  0
  1  2  1  0  0  0  0
  2  3  2  0  0  0  0
  2  4  1  0  0  0  0
  4  5  1  0  0  0  0
  4  6  1  0  0  0  0
  4  7  1  0  0  0  0
  7  8  1  0  0  0  0
  7  9  1  0  0  0  0
  7 10  1  0  0  0  0
 10 11  2  0  0  0  0
 10 24  1  0  0  0  0
 11 12  1  0  0  0  0
 12 13  1  0  0  0  0
 12 21  2  0  0  0  0
 13 14  1  0  0  0  0
 13 15  2  0  0  0  0
 15 16  1  0  0  0  0
 15 17  1  0  0  0  0
 17 18  1  0  0  0  0
 17 19  2  0  0  0  0
 19 20  1  0  0  0  0
 19 21  1  0  0  0  0
 21 22  1  0  0  0  0
 22 23  1  0  0  0  0
 22 24  1  0  0  0  0
 24 25  2  0  0  0  0
M  CHG  1   1  -1
M  END
>  <Catalog ID>
Z56862720

>  <a_acc>
2

>  <a_don>
2

>  <a_heavy>
16

>  <logP>
0.163

>  <logS>
-2.21158

>  <TPSA>
81.589996

>  <Weight>
217.20399

$$$$
Z877546758
  MOE2024           3D

 22 23  0  0  0  0  0  0  0  0999 V2000
    2.6910    0.1260   -0.0260 O   0  0  0  0  0  0  0  0  0  0  0  0
    1.4850    0.1530   -0.0150 C   0  0  0  0  0  0  0  0  0  0  0  0
    0.7940   -1.1970   -0.0080 C   0  0  0  0  0  0  0  0  0  0  0  0
    1.1480   -1.7290    0.8570 H   0  0  0  0  0  0  0  0  0  0  0  0
    1.1470   -1.7390   -0.8660 H   0  0  0  0  0  0  0  0  0  0  0  0
   -0.7470   -1.2260   -0.0070 C   0  0  0  0  0  0  0  0  0  0  0  0
   -1.0680   -1.7890    0.8520 H   0  0  0  0  0  0  0  0  0  0  0  0
   -1.0680   -1.7880   -0.8680 H   0  0  0  0  0  0  0  0  0  0  0  0
   -1.5030    0.1140   -0.0070 C   0  0  0  0  0  0  0  0  0  0  0  0
   -2.1470    0.1370    0.8560 H   0  0  0  0  0  0  0  0  0  0  0  0
   -2.1450    0.1400   -0.8710 H   0  0  0  0  0  0  0  0  0  0  0  0
   -0.6740    1.3890   -0.0040 C   0  0  0  0  0  0  0  0  0  0  0  0
   -1.3640    2.5900    0.0020 C   0  0  0  0  0  0  0  0  0  0  0  0
   -2.4400    2.6090    0.0050 H   0  0  0  0  0  0  0  0  0  0  0  0
   -0.6850    3.7940    0.0040 C   0  0  0  0  0  0  0  0  0  0  0  0
   -1.3760    4.9380    0.0100 O   0  0  0  0  0  0  0  0  0  0  0  0
   -0.8190    5.7350    0.0110 H   0  0  0  0  0  0  0  0  0  0  0  0
    0.6970    3.8090    0.0000 C   0  0  0  0  0  0  0  0  0  0  0  0
    1.2360    4.7390    0.0010 H   0  0  0  0  0  0  0  0  0  0  0  0
    1.3850    2.6120   -0.0060 C   0  0  0  0  0  0  0  0  0  0  0  0
    2.4620    2.6240   -0.0090 H   0  0  0  0  0  0  0  0  0  0  0  0
    0.7250    1.3770   -0.0080 C   0  0  0  0  0  0  0  0  0  0  0  0
  1  2  2  0  0  0  0
  2  3  1  0  0  0  0
  2 22  1  0  0  0  0
  3  4  1  0  0  0  0
  3  5  1  0  0  0  0
  3  6  1  0  0  0  0
  6  7  1  0  0  0  0
  6  8  1  0  0  0  0
  6  9  1  0  0  0  0
  9 10  1  0  0  0  0
  9 11  1  0  0  0  0
  9 12  1  0  0  0  0
 12 13  1  0  0  0  0
 12 22  2  0  0  0  0
 13 14  1  0  0  0  0
 13 15  2  0  0  0  0
 15 16  1  0  0  0  0
 15 18  1  0  0  0  0
 16 17  1  0  0  0  0
 18 19  1  0  0  0  0
 18 20  2  0  0  0  0
 20 21  1  0  0  0  0
 20 22  1  0  0  0  0
M  END
>  <Catalog ID>
Z877546758

>  <a_acc>
2

>  <a_don>
1

>  <a_heavy>
12

>  <logP>
1.798

>  <logS>
-1.90885

>  <TPSA>
37.299999

>  <Weight>
162.188

$$$$
Z104473344
  MOE2024           3D

 14 14  0  0  0  0  0  0  0  0999 V2000
    3.6330   -1.3680    1.7980 O   0  5  0  0  0  0  0  0  0  0  0  0
    3.5400   -1.4050    0.5640 C   0  0  0  0  0  0  0  0  0  0  0  0
    3.9310   -2.3730   -0.0980 O   0  0  0  0  0  0  0  0  0  0  0  0
    3.0130   -0.1830   -0.1620 C   0  0  0  0  0  0  0  0  0  0  0  0
    3.3850   -0.2040   -1.1670 H   0  0  0  0  0  0  0  0  0  0  0  0
    3.4280    0.6740    0.3300 H   0  0  0  0  0  0  0  0  0  0  0  0
    1.4940   -0.0640   -0.1780 C   0  0  0  0  0  0  0  0  0  0  0  0
    0.6510    0.6830    0.5580 C   0  0  0  0  0  0  0  0  0  0  0  0
    0.9520    1.3540    1.3430 H   0  0  0  0  0  0  0  0  0  0  0  0
   -0.7280    0.5060    0.2180 C   0  0  0  0  0  0  0  0  0  0  0  0
   -1.4960    1.0480    0.7400 H   0  0  0  0  0  0  0  0  0  0  0  0
   -0.9270   -0.3760   -0.7780 C   0  0  0  0  0  0  0  0  0  0  0  0
   -1.8200   -0.7310   -1.2590 H   0  0  0  0  0  0  0  0  0  0  0  0
    0.6010   -1.0320   -1.3400 S   0  0  0  0  0  0  0  0  0  0  0  0
  1  2  1  0  0  0  0
  2  3  2  0  0  0  0
  2  4  1  0  0  0  0
  4  5  1  0  0  0  0
  4  6  1  0  0  0  0
  4  7  1  0  0  0  0
  7  8  2  0  0  0  0
  7 14  1  0  0  0  0
  8  9  1  0  0  0  0
  8 10  1  0  0  0  0
 10 11  1  0  0  0  0
 10 12  2  0  0  0  0
 12 13  1  0  0  0  0
 12 14  1  0  0  0  0
M  CHG  1   1  -1
M  END
>  <Catalog ID>
Z104473344

>  <a_acc>
0

>  <a_don>
0

>  <a_heavy>
9

>  <logP>
1.322

>  <logS>
-1.48287

>  <TPSA>
40.130001

>  <Weight>
141.17

$$$$
Z271099378
  MOE2024           3D

 15 16  0  0  0  0  0  0  0  0999 V2000
   -0.0050   -3.3640   -0.0050 C   0  0  0  0  0  0  0  0  0  0  0  0
   -0.1190   -4.4340   -0.0050 H   0  0  0  0  0  0  0  0  0  0  0  0
    1.1350   -2.6320   -0.0040 C   0  0  0  0  0  0  0  0  0  0  0  0
    2.1530   -2.9830   -0.0040 H   0  0  0  0  0  0  0  0  0  0  0  0
    0.7670   -1.2680   -0.0040 C   0  0  0  0  0  0  0  0  0  0  0  0
    1.4590   -0.0600   -0.0040 C   0  0  0  0  0  0  0  0  0  0  0  0
    2.5340   -0.0440   -0.0030 H   0  0  0  0  0  0  0  0  0  0  0  0
    0.6960    1.0800   -0.0040 C   0  0  0  0  0  0  0  0  0  0  0  0
    1.1570    2.0510   -0.0040 H   0  0  0  0  0  0  0  0  0  0  0  0
   -0.7030    0.9890   -0.0050 C   0  0  0  0  0  0  0  0  0  0  0  0
   -1.2660    1.9070   -0.0050 H   0  0  0  0  0  0  0  0  0  0  0  0
   -1.3860   -0.1320   -0.0050 N   0  0  0  0  0  0  0  0  0  0  0  0
   -0.6250   -1.2360   -0.0050 C   0  0  0  0  0  0  0  0  0  0  0  0
   -1.0840   -2.5190   -0.0050 N   0  0  0  0  0  0  0  0  0  0  0  0
   -2.0780   -2.7610   -0.0060 H   0  0  0  0  0  0  0  0  0  0  0  0
  1  2  1  0  0  0  0
  1  3  2  0  0  0  0
  1 14  1  0  0  0  0
  3  4  1  0  0  0  0
  3  5  1  0  0  0  0
  5  6  1  0  0  0  0
  5 13  2  0  0  0  0
  6  7  1  0  0  0  0
  6  8  2  0  0  0  0
  8  9  1  0  0  0  0
  8 10  1  0  0  0  0
 10 11  1  0  0  0  0
 10 12  2  0  0  0  0
 12 13  1  0  0  0  0
 13 14  1  0  0  0  0
 14 15  1  0  0  0  0
M  END
>  <Catalog ID>
Z271099378

>  <a_acc>
2

>  <a_don>
2

>  <a_heavy>
9

>  <logP>
1.255

>  <logS>
-2.12626

>  <TPSA>
28.68

>  <Weight>
118.139

$$$$
Z104473840
  MOE2024           3D

 14 14  0  0  0  0  0  0  0  0999 V2000
    4.0140   -0.0430   -0.0020 N   0  0  0  0  0  0  0  0  0  0  0  0
    2.8740   -0.0270   -0.0010 C   0  0  0  0  0  0  0  0  0  0  0  0
    1.4390   -0.0120    0.0000 C   0  0  0  0  0  0  0  0  0  0  0  0
    0.7140   -1.2010    0.0000 C   0  0  0  0  0  0  0  0  0  0  0  0
    1.2380   -2.1420   -0.0010 H   0  0  0  0  0  0  0  0  0  0  0  0
   -0.6710   -1.1920    0.0000 C   0  0  0  0  0  0  0  0  0  0  0  0
   -1.2140   -2.1200    0.0000 H   0  0  0  0  0  0  0  0  0  0  0  0
   -1.3450    0.0170    0.0010 C   0  0  0  0  0  0  0  0  0  0  0  0
   -2.6840    0.0480    0.0020 O   0  0  0  0  0  0  0  0  0  0  0  0
   -3.0970   -0.8340    0.0020 H   0  0  0  0  0  0  0  0  0  0  0  0
   -0.6440    1.2090    0.0010 C   0  0  0  0  0  0  0  0  0  0  0  0
   -1.1840    2.1390    0.0020 H   0  0  0  0  0  0  0  0  0  0  0  0
    0.7400    1.1920    0.0010 C   0  0  0  0  0  0  0  0  0  0  0  0
    1.2810    2.1230    0.0010 H   0  0  0  0  0  0  0  0  0  0  0  0
  1  2  3  0  0  0  0
  2  3  1  0  0  0  0
  3  4  1  0  0  0  0
  3 13  2  0  0  0  0
  4  5  1  0  0  0  0
  4  6  2  0  0  0  0
  6  7  1  0  0  0  0
  6  8  1  0  0  0  0
  8  9  1  0  0  0  0
  8 11  2  0  0  0  0
  9 10  1  0  0  0  0
 11 12  1  0  0  0  0
 11 13  1  0  0  0  0
 13 14  1  0  0  0  0
M  END
>  <Catalog ID>
Z104473840

>  <a_acc>
2

>  <a_don>
1

>  <a_heavy>
9

>  <logP>
1.258

>  <logS>
-1.37386

>  <TPSA>
44.02

>  <Weight>
119.123

$$$$
Z335244742
  MOE2024           3D

 16 16  0  0  0  0  0  0  0  0999 V2000
    3.4100   -1.0620   -0.6160 O   0  0  0  0  0  0  0  0  0  0  0  0
    2.8410   -1.1060   -1.4090 H   0  0  0  0  0  0  0  0  0  0  0  0
    2.9390   -0.0610    0.2090 C   0  0  0  0  0  0  0  0  0  0  0  0
    3.3670    0.8720   -0.1150 H   0  0  0  0  0  0  0  0  0  0  0  0
    3.2580   -0.2720    1.2150 H   0  0  0  0  0  0  0  0  0  0  0  0
    1.4250   -0.0440    0.0980 C   0  0  0  0  0  0  0  0  0  0  0  0
    0.6810   -1.0910    0.6300 C   0  0  0  0  0  0  0  0  0  0  0  0
    1.1820   -1.9110    1.1160 H   0  0  0  0  0  0  0  0  0  0  0  0
   -0.7000   -1.0880    0.5360 C   0  0  0  0  0  0  0  0  0  0  0  0
   -1.2870   -1.8920    0.9440 H   0  0  0  0  0  0  0  0  0  0  0  0
   -1.3160   -0.0260   -0.0970 C   0  0  0  0  0  0  0  0  0  0  0  0
   -3.2350   -0.0130   -0.2330 Br  0  0  0  0  0  0  0  0  0  0  0  0
   -0.6030    1.0260   -0.6360 C   0  0  0  0  0  0  0  0  0  0  0  0
   -1.1170    1.8360   -1.1220 H   0  0  0  0  0  0  0  0  0  0  0  0
    0.7790    1.0120   -0.5360 C   0  0  0  0  0  0  0  0  0  0  0  0
    1.3460    1.8260   -0.9520 H   0  0  0  0  0  0  0  0  0  0  0  0
  1  2  1  0  0  0  0
  1  3  1  0  0  0  0
  3  4  1  0  0  0  0
  3  5  1  0  0  0  0
  3  6  1  0  0  0  0
  6  7  1  0  0  0  0
  6 15  2  0  0  0  0
  7  8  1  0  0  0  0
  7  9  2  0  0  0  0
  9 10  1  0  0  0  0
  9 11  1  0  0  0  0
 11 12  1  0  0  0  0
 11 13  2  0  0  0  0
 13 14  1  0  0  0  0
 13 15  1  0  0  0  0
 15 16  1  0  0  0  0
M  END
>  <Catalog ID>
Z335244742

>  <a_acc>
1

>  <a_don>
1

>  <a_heavy>
9

>  <logP>
2.1819999

>  <logS>
-2.24629

>  <TPSA>
20.23

>  <Weight>
187.036

$$$$
Z608353738
  MOE2024           3D

 14 14  0  0  0  0  0  0  0  0999 V2000
    3.5180    1.1100   -0.0090 O   0  5  0  0  0  0  0  0  0  0  0  0
    2.9020    0.0120   -0.0070 C   0  0  0  0  0  0  0  0  0  0  0  0
    3.6110   -1.0150   -0.0070 O   0  0  0  0  0  0  0  0  0  0  0  0
    1.4220   -0.0160   -0.0040 C   0  0  0  0  0  0  0  0  0  0  0  0
    0.7340   -1.1850   -0.0010 N   0  0  0  0  0  0  0  0  0  0  0  0
   -0.5830   -1.1260    0.0020 C   0  0  0  0  0  0  0  0  0  0  0  0
   -1.1050   -2.0670    0.0030 H   0  0  0  0  0  0  0  0  0  0  0  0
   -1.3220    0.0430    0.0030 C   0  0  0  0  0  0  0  0  0  0  0  0
   -2.3950    0.0060    0.0050 H   0  0  0  0  0  0  0  0  0  0  0  0
   -0.6590    1.2470    0.0000 C   0  0  0  0  0  0  0  0  0  0  0  0
   -1.1750    2.1890    0.0010 H   0  0  0  0  0  0  0  0  0  0  0  0
    0.7190    1.2060   -0.0030 C   0  0  0  0  0  0  0  0  0  0  0  0
    1.3720    2.3790   -0.0050 O   0  0  0  0  0  0  0  0  0  0  0  0
    2.3650    2.1730   -0.0070 H   0  0  0  0  0  0  0  0  0  0  0  0
  1  2  1  0  0  0  0
  2  3  2  0  0  0  0
  2  4  1  0  0  0  0
  4  5  1  0  0  0  0
  4 12  2  0  0  0  0
  5  6  2  0  0  0  0
  6  7  1  0  0  0  0
  6  8  1  0  0  0  0
  8  9  1  0  0  0  0
  8 10  2  0  0  0  0
 10 11  1  0  0  0  0
 10 12  1  0  0  0  0
 12 13  1  0  0  0  0
 13 14  1  0  0  0  0
M  CHG  1   1  -1
M  END
>  <Catalog ID>
Z608353738

>  <a_acc>
2

>  <a_don>
1

>  <a_heavy>
10

>  <logP>
0.123

>  <logS>
-0.14756

>  <TPSA>
73.25

>  <Weight>
138.10199

$$$$
Z56912586
  MOE2024           3D

 16 17  0  0  0  0  0  0  0  0999 V2000
    0.1630   -4.8210    0.0100 N   0  0  0  0  0  0  0  0  0  0  0  0
   -0.6510   -5.4360    0.0120 H   0  0  0  0  0  0  0  0  0  0  0  0
    1.0850   -5.2590    0.0110 H   0  0  0  0  0  0  0  0  0  0  0  0
    0.0610   -3.4730    0.0080 C   0  0  0  0  0  0  0  0  0  0  0  0
    1.0270   -2.6370    0.0060 N   0  0  0  0  0  0  0  0  0  0  0  0
    0.5560   -1.3330    0.0030 C   0  0  0  0  0  0  0  0  0  0  0  0
    1.3480   -0.1930    0.0010 C   0  0  0  0  0  0  0  0  0  0  0  0
    2.4170   -0.3040    0.0010 H   0  0  0  0  0  0  0  0  0  0  0  0
    0.7550    1.0600   -0.0020 C   0  0  0  0  0  0  0  0  0  0  0  0
    1.3720    1.9430   -0.0040 H   0  0  0  0  0  0  0  0  0  0  0  0
   -0.6320    1.1930   -0.0020 C   0  0  0  0  0  0  0  0  0  0  0  0
   -1.0750    2.1740   -0.0040 H   0  0  0  0  0  0  0  0  0  0  0  0
   -1.4410    0.0680    0.0010 C   0  0  0  0  0  0  0  0  0  0  0  0
   -2.5130    0.1430    0.0010 H   0  0  0  0  0  0  0  0  0  0  0  0
   -0.8180   -1.1660    0.0030 C   0  0  0  0  0  0  0  0  0  0  0  0
   -1.5490   -2.7550    0.0060 S   0  0  0  0  0  0  0  0  0  0  0  0
  1  2  1  0  0  0  0
  1  3  1  0  0  0  0
  1  4  1  0  0  0  0
  4  5  2  0  0  0  0
  4 16  1  0  0  0  0
  5  6  1  0  0  0  0
  6  7  1  0  0  0  0
  6 15  2  0  0  0  0
  7  8  1  0  0  0  0
  7  9  2  0  0  0  0
  9 10  1  0  0  0  0
  9 11  1  0  0  0  0
 11 12  1  0  0  0  0
 11 13  2  0  0  0  0
 13 14  1  0  0  0  0
 13 15  1  0  0  0  0
 15 16  1  0  0  0  0
M  END
>  <Catalog ID>
Z56912586

>  <a_acc>
1

>  <a_don>
1

>  <a_heavy>
10

>  <logP>
1.8609999

>  <logS>
-2.3926101

>  <TPSA>
38.91

>  <Weight>
150.205

$$$$
Z57367354
  MOE2024           3D

 14 14  0  0  0  0  0  0  0  0999 V2000
    3.5190    1.0710   -0.0030 O   0  5  0  0  0  0  0  0  0  0  0  0
    2.8860    0.0000    0.0000 C   0  0  0  0  0  0  0  0  0  0  0  0
    3.5200   -1.0700    0.0020 O   0  0  0  0  0  0  0  0  0  0  0  0
    1.4270    0.0000    0.0000 C   0  0  0  0  0  0  0  0  0  0  0  0
    0.7020   -1.1980    0.0040 C   0  0  0  0  0  0  0  0  0  0  0  0
    1.2490   -2.1270    0.0060 H   0  0  0  0  0  0  0  0  0  0  0  0
   -0.6820   -1.2080    0.0040 C   0  0  0  0  0  0  0  0  0  0  0  0
   -1.2290   -2.1320    0.0070 H   0  0  0  0  0  0  0  0  0  0  0  0
   -1.3510    0.0000    0.0020 C   0  0  0  0  0  0  0  0  0  0  0  0
   -2.6560    0.0000    0.0020 F   0  0  0  0  0  0  0  0  0  0  0  0
   -0.6820    1.2080   -0.0020 C   0  0  0  0  0  0  0  0  0  0  0  0
   -1.2280    2.1320   -0.0040 H   0  0  0  0  0  0  0  0  0  0  0  0
    0.7020    1.1970   -0.0020 C   0  0  0  0  0  0  0  0  0  0  0  0
    1.2490    2.1260   -0.0050 H   0  0  0  0  0  0  0  0  0  0  0  0
  1  2  1  0  0  0  0
  2  3  2  0  0  0  0
  2  4  1  0  0  0  0
  4  5  1  0  0  0  0
  4 13  2  0  0  0  0
  5  6  1  0  0  0  0
  5  7  2  0  0  0  0
  7  8  1  0  0  0  0
  7  9  1  0  0  0  0
  9 10  1  0  0  0  0
  9 11  2  0  0  0  0
 11 12  1  0  0  0  0
 11 13  1  0  0  0  0
 13 14  1  0  0  0  0
M  CHG  1   1  -1
M  END
>  <Catalog ID>
Z57367354

>  <a_acc>
0

>  <a_don>
0

>  <a_heavy>
10

>  <logP>
1.857

>  <logS>
-1.90971

>  <TPSA>
40.130001

>  <Weight>
139.105

$$$$
Z57127443
  MOE2024           3D

 19 19  0  0  0  0  0  0  0  0999 V2000
    3.6210   -1.2960    0.1930 C   0  0  0  0  0  0  0  0  0  0  0  0
    3.2760   -1.8980    1.0130 H   0  0  0  0  0  0  0  0  0  0  0  0
    4.6650   -1.0850    0.3400 H   0  0  0  0  0  0  0  0  0  0  0  0
    3.5080   -1.8360   -0.7290 H   0  0  0  0  0  0  0  0  0  0  0  0
    2.8370    0.0010    0.1330 C   0  0  0  0  0  0  0  0  0  0  0  0
    3.4820    1.0160    0.1700 O   0  0  0  0  0  0  0  0  0  0  0  0
    1.3890   -0.0180    0.0380 C   0  0  0  0  0  0  0  0  0  0  0  0
    0.6490   -1.1960   -0.1190 C   0  0  0  0  0  0  0  0  0  0  0  0
    1.1460   -2.1470   -0.1770 H   0  0  0  0  0  0  0  0  0  0  0  0
   -0.7320   -1.1750   -0.2050 C   0  0  0  0  0  0  0  0  0  0  0  0
   -1.2800   -2.0940   -0.3220 H   0  0  0  0  0  0  0  0  0  0  0  0
   -1.4110    0.0250   -0.1390 C   0  0  0  0  0  0  0  0  0  0  0  0
   -2.4840    0.0450   -0.2000 H   0  0  0  0  0  0  0  0  0  0  0  0
   -0.7130    1.2130    0.0110 C   0  0  0  0  0  0  0  0  0  0  0  0
   -1.3860    2.4180    0.0700 N   0  0  0  0  0  0  0  0  0  0  0  0
   -0.8340    3.2580   -0.1260 H   0  0  0  0  0  0  0  0  0  0  0  0
   -2.3070    2.4510   -0.3770 H   0  0  0  0  0  0  0  0  0  0  0  0
    0.6690    1.1750    0.1010 C   0  0  0  0  0  0  0  0  0  0  0  0
    1.2040    2.0990    0.2260 H   0  0  0  0  0  0  0  0  0  0  0  0
  1  2  1  0  0  0  0
  1  3  1  0  0  0  0
  1  4  1  0  0  0  0
  1  5  1  0  0  0  0
  5  6  2  0  0  0  0
  5  7  1  0  0  0  0
  7  8  1  0  0  0  0
  7 18  2  0  0  0  0
  8  9  1  0  0  0  0
  8 10  2  0  0  0  0
 10 11  1  0  0  0  0
 10 12  1  0  0  0  0
 12 13  1  0  0  0  0
 12 14  2  0  0  0  0
 14 15  1  0  0  0  0
 14 18  1  0  0  0  0
 15 16  1  0  0  0  0
 15 17  1  0  0  0  0
 18 19  1  0  0  0  0
M  END
>  <Catalog ID>
Z57127443

>  <a_acc>
1

>  <a_don>
1

>  <a_heavy>
10

>  <logP>
1.124

>  <logS>
-1.41803

>  <TPSA>
43.09

>  <Weight>
135.166

$$$$
Z104476320
  MOE2024           3D

 23 23  0  0  0  0  0  0  0  0999 V2000
    3.5050   -0.8270    1.0960 C   0  0  0  0  0  0  0  0  0  0  0  0
    4.5630   -0.9960    0.9990 H   0  0  0  0  0  0  0  0  0  0  0  0
    3.0310   -1.7590    1.3460 H   0  0  0  0  0  0  0  0  0  0  0  0
    3.3400   -0.1330    1.8990 H   0  0  0  0  0  0  0  0  0  0  0  0
    2.9300   -0.2890   -0.2190 C   0  0  0  0  0  0  0  0  0  0  0  0
    3.1660   -0.9990   -0.9940 H   0  0  0  0  0  0  0  0  0  0  0  0
    3.5850    1.0440   -0.5940 C   0  0  0  0  0  0  0  0  0  0  0  0
    3.4240    1.7790    0.1740 H   0  0  0  0  0  0  0  0  0  0  0  0
    3.1640    1.4110   -1.5130 H   0  0  0  0  0  0  0  0  0  0  0  0
    4.6440    0.9140   -0.7290 H   0  0  0  0  0  0  0  0  0  0  0  0
    1.4120   -0.1450   -0.1320 C   0  0  0  0  0  0  0  0  0  0  0  0
    0.5960   -0.8750   -0.9860 C   0  0  0  0  0  0  0  0  0  0  0  0
    1.0290   -1.5410   -1.7100 H   0  0  0  0  0  0  0  0  0  0  0  0
   -0.7810   -0.7550   -0.9190 C   0  0  0  0  0  0  0  0  0  0  0  0
   -1.4010   -1.3210   -1.5870 H   0  0  0  0  0  0  0  0  0  0  0  0
   -1.3720    0.0950    0.0050 C   0  0  0  0  0  0  0  0  0  0  0  0
   -2.7480    0.2040    0.0820 N   0  0  0  0  0  0  0  0  0  0  0  0
   -3.1210    0.5390    0.9730 H   0  0  0  0  0  0  0  0  0  0  0  0
   -3.2810   -0.5900   -0.2810 H   0  0  0  0  0  0  0  0  0  0  0  0
   -0.5570    0.8290    0.8540 C   0  0  0  0  0  0  0  0  0  0  0  0
   -1.0030    1.4980    1.5660 H   0  0  0  0  0  0  0  0  0  0  0  0
    0.8190    0.7100    0.7880 C   0  0  0  0  0  0  0  0  0  0  0  0
    1.4290    1.2880    1.4580 H   0  0  0  0  0  0  0  0  0  0  0  0
  1  2  1  0  0  0  0
  1  3  1  0  0  0  0
  1  4  1  0  0  0  0
  1  5  1  0  0  0  0
  5  6  1  0  0  0  0
  5  7  1  0  0  0  0
  5 11  1  0  0  0  0
  7  8  1  0  0  0  0
  7  9  1  0  0  0  0
  7 10  1  0  0  0  0
 11 12  1  0  0  0  0
 11 22  2  0  0  0  0
 12 13  1  0  0  0  0
 12 14  2  0  0  0  0
 14 15  1  0  0  0  0
 14 16  1  0  0  0  0
 16 17  1  0  0  0  0
 16 20  2  0  0  0  0
 17 18  1  0  0  0  0
 17 19  1  0  0  0  0
 20 21  1  0  0  0  0
 20 22  1  0  0  0  0
 22 23  1  0  0  0  0
M  END
>  <Catalog ID>
Z104476320

>  <a_acc>
0

>  <a_don>
1

>  <a_heavy>
10

>  <logP>
2.3770001

>  <logS>
-2.6101201

>  <TPSA>
26.02

>  <Weight>
135.20999

$$$$
Z104495626
  MOE2024           3D

 17 17  0  0  0  0  0  0  0  0999 V2000
    2.9360   -0.1030   -0.0120 C   0  0  0  0  0  0  0  0  0  0  0  0
    3.2580   -1.1270   -0.0060 H   0  0  0  0  0  0  0  0  0  0  0  0
    3.3380    0.3880    0.8560 H   0  0  0  0  0  0  0  0  0  0  0  0
    3.3340    0.3760   -0.8880 H   0  0  0  0  0  0  0  0  0  0  0  0
    1.4180    0.0150   -0.0090 C   0  0  0  0  0  0  0  0  0  0  0  0
    0.6890   -1.1650    0.0030 C   0  0  0  0  0  0  0  0  0  0  0  0
    1.1980   -2.1110    0.0100 H   0  0  0  0  0  0  0  0  0  0  0  0
   -0.6920   -1.1520    0.0060 C   0  0  0  0  0  0  0  0  0  0  0  0
   -1.2440   -2.0740    0.0150 H   0  0  0  0  0  0  0  0  0  0  0  0
   -1.3550    0.0570   -0.0040 C   0  0  0  0  0  0  0  0  0  0  0  0
   -2.4290    0.0890   -0.0020 H   0  0  0  0  0  0  0  0  0  0  0  0
   -0.6330    1.2340   -0.0160 C   0  0  0  0  0  0  0  0  0  0  0  0
   -1.1670    2.1700   -0.0240 H   0  0  0  0  0  0  0  0  0  0  0  0
    0.7680    1.2660   -0.0190 C   0  0  0  0  0  0  0  0  0  0  0  0
    1.4310    2.5790   -0.0320 C   0  0  0  0  0  0  0  0  0  0  0  0
    2.6680    2.7130   -0.0290 O   0  5  0  0  0  0  0  0  0  0  0  0
    0.7510    3.6240   -0.0460 O   0  0  0  0  0  0  0  0  0  0  0  0
  1  2  1  0  0  0  0
  1  3  1  0  0  0  0
  1  4  1  0  0  0  0
  1  5  1  0  0  0  0
  5  6  1  0  0  0  0
  5 14  2  0  0  0  0
  6  7  1  0  0  0  0
  6  8  2  0  0  0  0
  8  9  1  0  0  0  0
  8 10  1  0  0  0  0
 10 11  1  0  0  0  0
 10 12  2  0  0  0  0
 12 13  1  0  0  0  0
 12 14  1  0  0  0  0
 14 15  1  0  0  0  0
 15 16  1  0  0  0  0
 15 17  2  0  0  0  0
M  CHG  1  16  -1
M  END
>  <Catalog ID>
Z104495626

>  <a_acc>
0

>  <a_don>
0

>  <a_heavy>
10

>  <logP>
2

>  <logS>
-2.08865

>  <TPSA>
40.130001

>  <Weight>
135.142

$$$$
Z56865289
  MOE2024           3D

 20 20  0  0  0  0  0  0  0  0999 V2000
    3.7550    0.5280    1.9130 N   0  0  0  0  0  0  0  0  0  0  0  0
    4.1960    0.9180    2.7440 H   0  0  0  0  0  0  0  0  0  0  0  0
    3.2130   -0.3420    2.0230 H   0  0  0  0  0  0  0  0  0  0  0  0
    3.7500    1.1960    0.7430 C   0  0  0  0  0  0  0  0  0  0  0  0
    4.3050    2.2610    0.6460 O   0  0  0  0  0  0  0  0  0  0  0  0
    3.0410    0.5880   -0.4690 C   0  0  0  0  0  0  0  0  0  0  0  0
    3.5390   -0.3300   -0.7200 H   0  0  0  0  0  0  0  0  0  0  0  0
    3.1410    1.2600   -1.3020 H   0  0  0  0  0  0  0  0  0  0  0  0
    1.5910    0.2990   -0.2290 N   0  0  0  0  0  0  0  0  0  0  0  0
    0.5380    1.1810   -0.7560 C   0  0  0  0  0  0  0  0  0  0  0  0
    0.4580    1.0490   -1.8220 H   0  0  0  0  0  0  0  0  0  0  0  0
    0.7550    2.2110   -0.5260 H   0  0  0  0  0  0  0  0  0  0  0  0
   -0.7360    0.7040   -0.0430 C   0  0  0  0  0  0  0  0  0  0  0  0
   -1.5590    0.6130   -0.7300 H   0  0  0  0  0  0  0  0  0  0  0  0
   -0.9990    1.4230    0.7140 H   0  0  0  0  0  0  0  0  0  0  0  0
   -0.3870   -0.6410    0.6190 C   0  0  0  0  0  0  0  0  0  0  0  0
   -0.7770   -1.4670    0.0530 H   0  0  0  0  0  0  0  0  0  0  0  0
   -0.7330   -0.6910    1.6350 H   0  0  0  0  0  0  0  0  0  0  0  0
    1.1140   -0.6800    0.5670 C   0  0  0  0  0  0  0  0  0  0  0  0
    1.7860   -1.4700    1.1870 O   0  0  0  0  0  0  0  0  0  0  0  0
  1  2  1  0  0  0  0
  1  3  1  0  0  0  0
  1  4  1  0  0  0  0
  4  5  2  0  0  0  0
  4  6  1  0  0  0  0
  6  7  1  0  0  0  0
  6  8  1  0  0  0  0
  6  9  1  0  0  0  0
  9 10  1  0  0  0  0
  9 19  1  0  0  0  0
 10 11  1  0  0  0  0
 10 12  1  0  0  0  0
 10 13  1  0  0  0  0
 13 14  1  0  0  0  0
 13 15  1  0  0  0  0
 13 16  1  0  0  0  0
 16 17  1  0  0  0  0
 16 18  1  0  0  0  0
 16 19  1  0  0  0  0
 19 20  2  0  0  0  0
M  END
>  <Catalog ID>
Z56865289

>  <a_acc>
2

>  <a_don>
1

>  <a_heavy>
10

>  <logP>
-1.437

>  <logS>
-0.16821

>  <TPSA>
63.400002

>  <Weight>
142.158

$$$$
Z359505658
  MOE2024           3D

 23 23  0  0  0  0  0  0  0  0999 V2000
    4.7210    0.1430   -0.2310 O   0  5  0  0  0  0  0  0  0  0  0  0
    4.5810   -1.0770   -0.4110 C   0  0  0  0  0  0  0  0  0  0  0  0
    5.3510   -1.7820   -1.0570 O   0  0  0  0  0  0  0  0  0  0  0  0
    3.3030   -1.6730    0.1730 C   0  0  0  0  0  0  0  0  0  0  0  0
    3.5710   -2.1710    1.0860 H   0  0  0  0  0  0  0  0  0  0  0  0
    2.9070   -2.3920   -0.5200 H   0  0  0  0  0  0  0  0  0  0  0  0
    2.3120   -0.5650    0.4500 N   0  3  0  0  0  0  0  0  0  0  0  0
    2.9680    0.2320    0.6120 H   0  0  0  0  0  0  0  0  0  0  0  0
    1.7240   -0.7070    1.2700 H   0  0  0  0  0  0  0  0  0  0  0  0
    1.5350   -0.1840   -0.7350 C   0  0  0  0  0  0  0  0  0  0  0  0
    2.1730   -0.1190   -1.6040 H   0  0  0  0  0  0  0  0  0  0  0  0
    0.8340    1.1350   -0.4410 C   0  0  0  0  0  0  0  0  0  0  0  0
    0.5290    1.5670   -1.3780 H   0  0  0  0  0  0  0  0  0  0  0  0
    1.4710    1.8420    0.0620 H   0  0  0  0  0  0  0  0  0  0  0  0
   -0.4200    0.7760    0.3670 C   0  0  0  0  0  0  0  0  0  0  0  0
   -1.2470    1.4090    0.0900 H   0  0  0  0  0  0  0  0  0  0  0  0
   -0.2340    0.9010    1.4210 H   0  0  0  0  0  0  0  0  0  0  0  0
   -0.7170   -0.6980    0.0590 C   0  0  0  0  0  0  0  0  0  0  0  0
   -1.6950   -0.8150   -0.3800 H   0  0  0  0  0  0  0  0  0  0  0  0
   -0.6780   -1.2770    0.9660 H   0  0  0  0  0  0  0  0  0  0  0  0
    0.3750   -1.1580   -0.9160 C   0  0  0  0  0  0  0  0  0  0  0  0
    0.6560   -2.1860   -0.7700 H   0  0  0  0  0  0  0  0  0  0  0  0
    0.0050   -1.0520   -1.9210 H   0  0  0  0  0  0  0  0  0  0  0  0
  1  2  1  0  0  0  0
  2  3  2  0  0  0  0
  2  4  1  0  0  0  0
  4  5  1  0  0  0  0
  4  6  1  0  0  0  0
  4  7  1  0  0  0  0
  7  8  1  0  0  0  0
  7  9  1  0  0  0  0
  7 10  1  0  0  0  0
 10 11  1  0  0  0  0
 10 12  1  0  0  0  0
 10 21  1  0  0  0  0
 12 13  1  0  0  0  0
 12 14  1  0  0  0  0
 12 15  1  0  0  0  0
 15 16  1  0  0  0  0
 15 17  1  0  0  0  0
 15 18  1  0  0  0  0
 18 19  1  0  0  0  0
 18 20  1  0  0  0  0
 18 21  1  0  0  0  0
 21 22  1  0  0  0  0
 21 23  1  0  0  0  0
M  CHG  1   1  -1
M  CHG  1   7   1
M  END
>  <Catalog ID>
Z359505658

>  <a_acc>
0

>  <a_don>
0

>  <a_heavy>
10

>  <logP>
1.062

>  <logS>
-0.54530001

>  <TPSA>
56.740002

>  <Weight>
143.186

$$$$
Z57902803
  MOE2024           3D

 20 20  0  0  0  0  0  0  0  0999 V2000
    2.9440   -0.0310    0.0430 C   0  0  0  0  0  0  0  0  0  0  0  0
    3.3030   -0.9460    0.4780 H   0  0  0  0  0  0  0  0  0  0  0  0
    3.3480    0.7850    0.6150 H   0  0  0  0  0  0  0  0  0  0  0  0
    3.3180    0.0280   -0.9640 H   0  0  0  0  0  0  0  0  0  0  0  0
    1.4210    0.0180    0.0430 C   0  0  0  0  0  0  0  0  0  0  0  0
    0.7340   -1.1060    0.4790 C   0  0  0  0  0  0  0  0  0  0  0  0
    1.2720   -1.9800    0.8060 H   0  0  0  0  0  0  0  0  0  0  0  0
   -0.6470   -1.1270    0.5020 C   0  0  0  0  0  0  0  0  0  0  0  0
   -1.1700   -2.0040    0.8430 H   0  0  0  0  0  0  0  0  0  0  0  0
   -1.3530   -0.0160    0.0860 C   0  0  0  0  0  0  0  0  0  0  0  0
   -2.4290   -0.0240    0.1010 H   0  0  0  0  0  0  0  0  0  0  0  0
   -0.6700    1.1050   -0.3490 C   0  0  0  0  0  0  0  0  0  0  0  0
   -1.2370    1.9630   -0.6700 H   0  0  0  0  0  0  0  0  0  0  0  0
    0.7210    1.1520   -0.3830 C   0  0  0  0  0  0  0  0  0  0  0  0
    1.5340    2.6760   -0.9630 S   0  0  0  0  0  0  0  0  0  0  0  0
    2.2610    3.3180    0.3790 N   0  0  0  0  0  0  0  0  0  0  0  0
    1.6360    4.0760    0.6400 H   0  0  0  0  0  0  0  0  0  0  0  0
    3.0920    3.7620    0.0000 H   0  0  0  0  0  0  0  0  0  0  0  0
    0.5740    3.7010   -1.2890 O   0  0  0  0  0  0  0  0  0  0  0  0
    2.6410    2.4240   -1.8530 O   0  0  0  0  0  0  0  0  0  0  0  0
  1  2  1  0  0  0  0
  1  3  1  0  0  0  0
  1  4  1  0  0  0  0
  1  5  1  0  0  0  0
  5  6  1  0  0  0  0
  5 14  2  0  0  0  0
  6  7  1  0  0  0  0
  6  8  2  0  0  0  0
  8  9  1  0  0  0  0
  8 10  1  0  0  0  0
 10 11  1  0  0  0  0
 10 12  2  0  0  0  0
 12 13  1  0  0  0  0
 12 14  1  0  0  0  0
 14 15  1  0  0  0  0
 15 16  1  0  0  0  0
 15 19  2  0  0  0  0
 15 20  2  0  0  0  0
 16 17  1  0  0  0  0
 16 18  1  0  0  0  0
M  END
>  <Catalog ID>
Z57902803

>  <a_acc>
2

>  <a_don>
1

>  <a_heavy>
11

>  <logP>
0.63

>  <logS>
-1.77196

>  <TPSA>
60.16

>  <Weight>
171.22

$$$$
Z56896352
  MOE2024           3D

 16 17  0  0  0  0  0  0  0  0999 V2000
    0.1690   -4.8340   -0.0050 N   0  0  0  0  0  0  0  0  0  0  0  0
   -0.6460   -5.4480   -0.0010 H   0  0  0  0  0  0  0  0  0  0  0  0
    1.0900   -5.2750   -0.0120 H   0  0  0  0  0  0  0  0  0  0  0  0
    0.0710   -3.4850   -0.0020 C   0  0  0  0  0  0  0  0  0  0  0  0
    1.0370   -2.6500   -0.0070 N   0  0  0  0  0  0  0  0  0  0  0  0
    0.5710   -1.3460   -0.0020 C   0  0  0  0  0  0  0  0  0  0  0  0
    1.3730   -0.2100   -0.0060 C   0  0  0  0  0  0  0  0  0  0  0  0
    2.4410   -0.3280   -0.0120 H   0  0  0  0  0  0  0  0  0  0  0  0
    0.7850    1.0470    0.0000 C   0  0  0  0  0  0  0  0  0  0  0  0
    1.3910    1.9350   -0.0030 H   0  0  0  0  0  0  0  0  0  0  0  0
   -0.6010    1.1680    0.0080 C   0  0  0  0  0  0  0  0  0  0  0  0
   -1.3140    2.7600    0.0150 Cl  0  0  0  0  0  0  0  0  0  0  0  0
   -1.4260    0.0580    0.0120 C   0  0  0  0  0  0  0  0  0  0  0  0
   -2.4960    0.1530    0.0190 H   0  0  0  0  0  0  0  0  0  0  0  0
   -0.8040   -1.1760    0.0070 C   0  0  0  0  0  0  0  0  0  0  0  0
   -1.5380   -2.7640    0.0090 S   0  0  0  0  0  0  0  0  0  0  0  0
  1  2  1  0  0  0  0
  1  3  1  0  0  0  0
  1  4  1  0  0  0  0
  4  5  2  0  0  0  0
  4 16  1  0  0  0  0
  5  6  1  0  0  0  0
  6  7  1  0  0  0  0
  6 15  2  0  0  0  0
  7  8  1  0  0  0  0
  7  9  2  0  0  0  0
  9 10  1  0  0  0  0
  9 11  1  0  0  0  0
 11 12  1  0  0  0  0
 11 13  2  0  0  0  0
 13 14  1  0  0  0  0
 13 15  1  0  0  0  0
 15 16  1  0  0  0  0
M  END
>  <Catalog ID>
Z56896352

>  <a_acc>
1

>  <a_don>
1

>  <a_heavy>
11

>  <logP>
2.49

>  <logS>
-3.1269

>  <TPSA>
38.91

>  <Weight>
184.64999

$$$$
Z316258722
  MOE2024           3D

 24 24  0  0  0  0  0  0  0  0999 V2000
    6.0910   -0.5140   -0.0990 O   0  5  0  0  0  0  0  0  0  0  0  0
    5.2090   -1.2580   -0.5520 C   0  0  0  0  0  0  0  0  0  0  0  0
    5.4570   -2.1140   -1.4140 O   0  0  0  0  0  0  0  0  0  0  0  0
    3.8070   -1.2070    0.0640 C   0  0  0  0  0  0  0  0  0  0  0  0
    3.9160   -0.9020    1.0860 H   0  0  0  0  0  0  0  0  0  0  0  0
    3.4060   -2.2010    0.0260 H   0  0  0  0  0  0  0  0  0  0  0  0
    2.8940   -0.3240   -0.5700 O   0  0  0  0  0  0  0  0  0  0  0  0
    1.6320   -0.2720    0.0050 C   0  0  0  0  0  0  0  0  0  0  0  0
    1.7290   -0.3620    1.0740 H   0  0  0  0  0  0  0  0  0  0  0  0
    0.7700   -1.4100   -0.5600 C   0  0  0  0  0  0  0  0  0  0  0  0
    1.1710   -2.3590   -0.2560 H   0  0  0  0  0  0  0  0  0  0  0  0
    0.7950   -1.3610   -1.6350 H   0  0  0  0  0  0  0  0  0  0  0  0
   -0.6850   -1.3000   -0.0790 C   0  0  0  0  0  0  0  0  0  0  0  0
   -0.7190   -1.4520    0.9860 H   0  0  0  0  0  0  0  0  0  0  0  0
   -1.2750   -2.0720   -0.5430 H   0  0  0  0  0  0  0  0  0  0  0  0
   -1.2810    0.0750   -0.4140 C   0  0  0  0  0  0  0  0  0  0  0  0
   -2.2770    0.1450   -0.0130 H   0  0  0  0  0  0  0  0  0  0  0  0
   -1.3470    0.1800   -1.4840 H   0  0  0  0  0  0  0  0  0  0  0  0
   -0.4170    1.2110    0.1500 C   0  0  0  0  0  0  0  0  0  0  0  0
   -0.4340    1.1740    1.2260 H   0  0  0  0  0  0  0  0  0  0  0  0
   -0.8230    2.1600   -0.1560 H   0  0  0  0  0  0  0  0  0  0  0  0
    1.0350    1.0950   -0.3370 C   0  0  0  0  0  0  0  0  0  0  0  0
    1.0650    1.2300   -1.4040 H   0  0  0  0  0  0  0  0  0  0  0  0
    1.6340    1.8630    0.1180 H   0  0  0  0  0  0  0  0  0  0  0  0
  1  2  1  0  0  0  0
  2  3  2  0  0  0  0
  2  4  1  0  0  0  0
  4  5  1  0  0  0  0
  4  6  1  0  0  0  0
  4  7  1  0  0  0  0
  7  8  1  0  0  0  0
  8  9  1  0  0  0  0
  8 10  1  0  0  0  0
  8 22  1  0  0  0  0
 10 11  1  0  0  0  0
 10 12  1  0  0  0  0
 10 13  1  0  0  0  0
 13 14  1  0  0  0  0
 13 15  1  0  0  0  0
 13 16  1  0  0  0  0
 16 17  1  0  0  0  0
 16 18  1  0  0  0  0
 16 19  1  0  0  0  0
 19 20  1  0  0  0  0
 19 21  1  0  0  0  0
 19 22  1  0  0  0  0
 22 23  1  0  0  0  0
 22 24  1  0  0  0  0
M  CHG  1   1  -1
M  END
>  <Catalog ID>
Z316258722

>  <a_acc>
1

>  <a_don>
0

>  <a_heavy>
11

>  <logP>
1.813

>  <logS>
-1.46061

>  <TPSA>
49.360001

>  <Weight>
157.189

$$$$
Z608061328
  MOE2024           3D

 18 18  0  0  0  0  0  0  0  0999 V2000
    4.3880   -1.8480   -0.1200 O   0  5  0  0  0  0  0  0  0  0  0  0
    3.8310   -0.7480   -0.1670 C   0  0  0  0  0  0  0  0  0  0  0  0
    4.0840    0.0910   -1.0440 O   0  0  0  0  0  0  0  0  0  0  0  0
    2.8360   -0.3690    0.9070 C   0  0  0  0  0  0  0  0  0  0  0  0
    3.1490    0.5740    1.3090 H   0  0  0  0  0  0  0  0  0  0  0  0
    2.9190   -1.0990    1.6880 H   0  0  0  0  0  0  0  0  0  0  0  0
    1.3760   -0.2440    0.4460 C   0  0  0  0  0  0  0  0  0  0  0  0
    0.3980   -0.9590    1.1220 C   0  0  0  0  0  0  0  0  0  0  0  0
    0.6770   -1.6170    1.9260 H   0  0  0  0  0  0  0  0  0  0  0  0
   -0.9390   -0.8360    0.7790 C   0  0  0  0  0  0  0  0  0  0  0  0
   -1.6830   -1.3980    1.3150 H   0  0  0  0  0  0  0  0  0  0  0  0
   -1.3170    0.0100   -0.2500 C   0  0  0  0  0  0  0  0  0  0  0  0
   -2.3540    0.1110   -0.5160 H   0  0  0  0  0  0  0  0  0  0  0  0
   -0.3520    0.7220   -0.9390 C   0  0  0  0  0  0  0  0  0  0  0  0
   -0.6210    1.3780   -1.7450 H   0  0  0  0  0  0  0  0  0  0  0  0
    0.9840    0.5890   -0.6010 C   0  0  0  0  0  0  0  0  0  0  0  0
    1.8830    1.2750   -1.3270 O   0  0  0  0  0  0  0  0  0  0  0  0
    2.8150    0.8690   -1.2570 H   0  0  0  0  0  0  0  0  0  0  0  0
  1  2  1  0  0  0  0
  2  3  2  0  0  0  0
  2  4  1  0  0  0  0
  4  5  1  0  0  0  0
  4  6  1  0  0  0  0
  4  7  1  0  0  0  0
  7  8  1  0  0  0  0
  7 16  2  0  0  0  0
  8  9  1  0  0  0  0
  8 10  2  0  0  0  0
 10 11  1  0  0  0  0
 10 12  1  0  0  0  0
 12 13  1  0  0  0  0
 12 14  2  0  0  0  0
 14 15  1  0  0  0  0
 14 16  1  0  0  0  0
 16 17  1  0  0  0  0
 17 18  1  0  0  0  0
M  CHG  1   1  -1
M  END
>  <Catalog ID>
Z608061328

>  <a_acc>
1

>  <a_don>
1

>  <a_heavy>
11

>  <logP>
1.482

>  <logS>
-1.31425

>  <TPSA>
60.360001

>  <Weight>
151.14099

$$$$
Z816000338
  MOE2024           3D

 18 18  0  0  0  0  0  0  0  0999 V2000
    3.5940   -2.3120    0.5140 O   0  5  0  0  0  0  0  0  0  0  0  0
    3.5960   -1.3040   -0.2040 C   0  0  0  0  0  0  0  0  0  0  0  0
    4.2030   -1.2570   -1.2800 O   0  0  0  0  0  0  0  0  0  0  0  0
    2.8920   -0.0560    0.2890 C   0  0  0  0  0  0  0  0  0  0  0  0
    3.3650    0.7850   -0.1780 H   0  0  0  0  0  0  0  0  0  0  0  0
    3.0670    0.0140    1.3440 H   0  0  0  0  0  0  0  0  0  0  0  0
    1.3870   -0.0340    0.0290 C   0  0  0  0  0  0  0  0  0  0  0  0
    0.5730   -0.9980    0.6040 C   0  0  0  0  0  0  0  0  0  0  0  0
    1.0220   -1.7700    1.2090 H   0  0  0  0  0  0  0  0  0  0  0  0
   -0.7970   -0.9820    0.3970 C   0  0  0  0  0  0  0  0  0  0  0  0
   -1.4130   -1.7370    0.8490 H   0  0  0  0  0  0  0  0  0  0  0  0
   -1.3630    0.0030   -0.3930 C   0  0  0  0  0  0  0  0  0  0  0  0
   -2.4230    0.0300   -0.5640 H   0  0  0  0  0  0  0  0  0  0  0  0
   -0.5520    0.9600   -0.9760 C   0  0  0  0  0  0  0  0  0  0  0  0
   -1.1010    1.9070   -1.7520 O   0  0  0  0  0  0  0  0  0  0  0  0
   -0.4270    2.4830   -2.1520 H   0  0  0  0  0  0  0  0  0  0  0  0
    0.8190    0.9460   -0.7690 C   0  0  0  0  0  0  0  0  0  0  0  0
    1.4470    1.6860   -1.2260 H   0  0  0  0  0  0  0  0  0  0  0  0
  1  2  1  0  0  0  0
  2  3  2  0  0  0  0
  2  4  1  0  0  0  0
  4  5  1  0  0  0  0
  4  6  1  0  0  0  0
  4  7  1  0  0  0  0
  7  8  1  0  0  0  0
  7 17  2  0  0  0  0
  8  9  1  0  0  0  0
  8 10  2  0  0  0  0
 10 11  1  0  0  0  0
 10 12  1  0  0  0  0
 12 13  1  0  0  0  0
 12 14  2  0  0  0  0
 14 15  1  0  0  0  0
 14 17  1  0  0  0  0
 15 16  1  0  0  0  0
 17 18  1  0  0  0  0
M  CHG  1   1  -1
M  END
>  <Catalog ID>
Z816000338

>  <a_acc>
1

>  <a_don>
1

>  <a_heavy>
11

>  <logP>
1.521

>  <logS>
-1.31425

>  <TPSA>
60.360001

>  <Weight>
151.14099

$$$$
Z440825046
  MOE2024           3D

 19 20  0  0  0  0  0  0  0  0999 V2000
    2.9990   -4.1250    0.1200 C   0  0  0  0  0  0  0  0  0  0  0  0
    3.8820   -4.6880    0.3770 H   0  0  0  0  0  0  0  0  0  0  0  0
    2.7180   -2.8380    0.4130 C   0  0  0  0  0  0  0  0  0  0  0  0
    3.2960   -2.1130    0.9540 H   0  0  0  0  0  0  0  0  0  0  0  0
    1.5010   -2.5600   -0.1070 N   0  0  0  0  0  0  0  0  0  0  0  0
    1.1330   -3.7310   -0.6900 C   0  0  0  0  0  0  0  0  0  0  0  0
    0.1920   -3.8220   -1.2010 H   0  0  0  0  0  0  0  0  0  0  0  0
    1.9950   -4.6900   -0.5780 N   0  0  0  0  0  0  0  0  0  0  0  0
    0.7850   -1.3370   -0.0510 C   0  0  0  0  0  0  0  0  0  0  0  0
    1.4220   -0.1300   -0.3200 C   0  0  0  0  0  0  0  0  0  0  0  0
    2.4680   -0.1210   -0.5750 H   0  0  0  0  0  0  0  0  0  0  0  0
    0.7240    1.0630   -0.2680 C   0  0  0  0  0  0  0  0  0  0  0  0
    1.2260    1.9920   -0.4790 H   0  0  0  0  0  0  0  0  0  0  0  0
   -0.6220    1.0640    0.0530 C   0  0  0  0  0  0  0  0  0  0  0  0
   -1.1650    1.9920    0.0930 H   0  0  0  0  0  0  0  0  0  0  0  0
   -1.2680   -0.1290    0.3230 C   0  0  0  0  0  0  0  0  0  0  0  0
   -2.3140   -0.1280    0.5750 H   0  0  0  0  0  0  0  0  0  0  0  0
   -0.5690   -1.3220    0.2720 C   0  0  0  0  0  0  0  0  0  0  0  0
   -1.0810   -2.2440    0.4900 H   0  0  0  0  0  0  0  0  0  0  0  0
  1  2  1  0  0  0  0
  1  3  2  0  0  0  0
  1  8  1  0  0  0  0
  3  4  1  0  0  0  0
  3  5  1  0  0  0  0
  5  6  1  0  0  0  0
  5  9  1  0  0  0  0
  6  7  1  0  0  0  0
  6  8  2  0  0  0  0
  9 10  1  0  0  0  0
  9 18  2  0  0  0  0
 10 11  1  0  0  0  0
 10 12  2  0  0  0  0
 12 13  1  0  0  0  0
 12 14  1  0  0  0  0
 14 15  1  0  0  0  0
 14 16  2  0  0  0  0
 16 17  1  0  0  0  0
 16 18  1  0  0  0  0
 18 19  1  0  0  0  0
M  END
>  <Catalog ID>
Z440825046

>  <a_acc>
1

>  <a_don>
0

>  <a_heavy>
11

>  <logP>
1.686

>  <logS>
-1.70697

>  <TPSA>
17.82

>  <Weight>
144.177

$$$$
Z1198175704
  MOE2024           3D

 25 25  0  0  0  0  0  0  0  0999 V2000
    2.5890   -0.0390    0.0020 C   0  0  0  0  0  0  0  0  0  0  0  0
    2.9410    0.9770    0.0020 H   0  0  0  0  0  0  0  0  0  0  0  0
    2.9600   -0.5340   -0.8760 H   0  0  0  0  0  0  0  0  0  0  0  0
    2.9600   -0.5340    0.8790 H   0  0  0  0  0  0  0  0  0  0  0  0
    1.0770   -0.0570    0.0020 C   0  0  0  0  0  0  0  0  0  0  0  0
    0.3880    1.0360    0.0000 N   0  0  0  0  0  0  0  0  0  0  0  0
   -0.8900    0.6380    0.0000 N   0  0  0  0  0  0  0  0  0  0  0  0
   -1.9700    1.6340   -0.0010 C   0  0  0  0  0  0  0  0  0  0  0  0
   -1.5390    2.6180   -0.0030 H   0  0  0  0  0  0  0  0  0  0  0  0
   -2.5680    1.5060    0.8800 H   0  0  0  0  0  0  0  0  0  0  0  0
   -2.5680    1.5030   -0.8820 H   0  0  0  0  0  0  0  0  0  0  0  0
   -0.9940   -0.7130    0.0030 C   0  0  0  0  0  0  0  0  0  0  0  0
   -2.3300   -1.4480    0.0030 C   0  0  0  0  0  0  0  0  0  0  0  0
   -3.1610   -0.7670    0.0010 H   0  0  0  0  0  0  0  0  0  0  0  0
   -2.4100   -2.0630    0.8810 H   0  0  0  0  0  0  0  0  0  0  0  0
   -2.4080   -2.0670   -0.8720 H   0  0  0  0  0  0  0  0  0  0  0  0
    0.2750   -1.1970    0.0040 C   0  0  0  0  0  0  0  0  0  0  0  0
    0.8650   -2.6070    0.0080 C   0  0  0  0  0  0  0  0  0  0  0  0
    1.4840   -2.7100    0.8810 H   0  0  0  0  0  0  0  0  0  0  0  0
    1.4870   -2.7140   -0.8630 H   0  0  0  0  0  0  0  0  0  0  0  0
   -0.1610   -3.7380    0.0090 C   0  0  0  0  0  0  0  0  0  0  0  0
   -0.7720   -3.6930   -0.8760 H   0  0  0  0  0  0  0  0  0  0  0  0
   -0.7750   -3.6900    0.8910 H   0  0  0  0  0  0  0  0  0  0  0  0
    0.5100   -4.9520    0.0120 O   0  0  0  0  0  0  0  0  0  0  0  0
   -0.1210   -5.6970    0.0130 H   0  0  0  0  0  0  0  0  0  0  0  0
  1  2  1  0  0  0  0
  1  3  1  0  0  0  0
  1  4  1  0  0  0  0
  1  5  1  0  0  0  0
  5  6  2  0  0  0  0
  5 17  1  0  0  0  0
  6  7  1  0  0  0  0
  7  8  1  0  0  0  0
  7 12  1  0  0  0  0
  8  9  1  0  0  0  0
  8 10  1  0  0  0  0
  8 11  1  0  0  0  0
 12 13  1  0  0  0  0
 12 17  2  0  0  0  0
 13 14  1  0  0  0  0
 13 15  1  0  0  0  0
 13 16  1  0  0  0  0
 17 18  1  0  0  0  0
 18 19  1  0  0  0  0
 18 20  1  0  0  0  0
 18 21  1  0  0  0  0
 21 22  1  0  0  0  0
 21 23  1  0  0  0  0
 21 24  1  0  0  0  0
 24 25  1  0  0  0  0
M  END
>  <Catalog ID>
Z1198175704

>  <a_acc>
2

>  <a_don>
1

>  <a_heavy>
11

>  <logP>
-0.037

>  <logS>
-0.1742

>  <TPSA>
38.049999

>  <Weight>
154.213

$$$$
Z1203734446
  MOE2024           3D

 19 20  0  0  0  0  0  0  0  0999 V2000
   -2.8400    4.0880    0.0000 C   0  0  0  0  0  0  0  0  0  0  0  0
   -2.4440    5.0870   -0.0010 H   0  0  0  0  0  0  0  0  0  0  0  0
   -3.4500    3.9500    0.8760 H   0  0  0  0  0  0  0  0  0  0  0  0
   -3.4500    3.9480   -0.8750 H   0  0  0  0  0  0  0  0  0  0  0  0
   -1.7420    3.0880    0.0010 N   0  0  0  0  0  0  0  0  0  0  0  0
   -0.4080    3.5130    0.0030 C   0  0  0  0  0  0  0  0  0  0  0  0
   -0.2330    4.5760    0.0020 H   0  0  0  0  0  0  0  0  0  0  0  0
    0.6210    2.6290    0.0050 C   0  0  0  0  0  0  0  0  0  0  0  0
    1.6510    2.9380    0.0070 H   0  0  0  0  0  0  0  0  0  0  0  0
    0.3470    1.2310    0.0060 C   0  0  0  0  0  0  0  0  0  0  0  0
    1.1370    0.0730    0.0090 C   0  0  0  0  0  0  0  0  0  0  0  0
    2.2130    0.0620    0.0110 H   0  0  0  0  0  0  0  0  0  0  0  0
    0.2900   -0.9910    0.0080 C   0  0  0  0  0  0  0  0  0  0  0  0
    0.5350   -2.0390    0.0090 H   0  0  0  0  0  0  0  0  0  0  0  0
   -0.9950   -0.5460    0.0050 N   0  0  0  0  0  0  0  0  0  0  0  0
   -1.8560   -1.1060    0.0040 H   0  0  0  0  0  0  0  0  0  0  0  0
   -0.9630    0.8170    0.0040 C   0  0  0  0  0  0  0  0  0  0  0  0
   -2.0490    1.7340    0.0010 C   0  0  0  0  0  0  0  0  0  0  0  0
   -3.2130    1.3470   -0.0010 O   0  0  0  0  0  0  0  0  0  0  0  0
  1  2  1  0  0  0  0
  1  3  1  0  0  0  0
  1  4  1  0  0  0  0
  1  5  1  0  0  0  0
  5  6  1  0  0  0  0
  5 18  1  0  0  0  0
  6  7  1  0  0  0  0
  6  8  2  0  0  0  0
  8  9  1  0  0  0  0
  8 10  1  0  0  0  0
 10 11  1  0  0  0  0
 10 17  2  0  0  0  0
 11 12  1  0  0  0  0
 11 13  2  0  0  0  0
 13 14  1  0  0  0  0
 13 15  1  0  0  0  0
 15 16  1  0  0  0  0
 15 17  1  0  0  0  0
 17 18  1  0  0  0  0
 18 19  2  0  0  0  0
M  END
>  <Catalog ID>
Z1203734446

>  <a_acc>
1

>  <a_don>
1

>  <a_heavy>
11

>  <logP>
0.34

>  <logS>
-0.41613001

>  <TPSA>
36.099998

>  <Weight>
148.16499

$$$$
Z104478552
  MOE2024           3D

 17 17  0  0  0  0  0  0  0  0999 V2000
    2.9630   -1.7750   -1.6570 O   0  5  0  0  0  0  0  0  0  0  0  0
    3.6730   -1.2590   -0.7870 C   0  0  0  0  0  0  0  0  0  0  0  0
    4.8820   -1.5000   -0.6960 O   0  0  0  0  0  0  0  0  0  0  0  0
    3.0780   -0.2830    0.2090 C   0  0  0  0  0  0  0  0  0  0  0  0
    3.4960    0.6790   -0.0080 H   0  0  0  0  0  0  0  0  0  0  0  0
    3.4370   -0.5610    1.1800 H   0  0  0  0  0  0  0  0  0  0  0  0
    1.5440   -0.2240    0.2050 C   0  0  0  0  0  0  0  0  0  0  0  0
    0.7870   -1.1110    0.9620 C   0  0  0  0  0  0  0  0  0  0  0  0
    1.5500   -2.3060    1.9870 Cl  0  0  0  0  0  0  0  0  0  0  0  0
   -0.5980   -1.0840    0.9510 C   0  0  0  0  0  0  0  0  0  0  0  0
   -1.1420   -1.7920    1.5490 H   0  0  0  0  0  0  0  0  0  0  0  0
   -1.2660   -0.1560    0.1710 C   0  0  0  0  0  0  0  0  0  0  0  0
   -2.3410   -0.1320    0.1540 H   0  0  0  0  0  0  0  0  0  0  0  0
   -0.5350    0.7390   -0.5910 C   0  0  0  0  0  0  0  0  0  0  0  0
   -1.0290    1.4670   -1.2070 H   0  0  0  0  0  0  0  0  0  0  0  0
    0.8500    0.6990   -0.5680 C   0  0  0  0  0  0  0  0  0  0  0  0
    1.6930    1.8780   -1.5490 Cl  0  0  0  0  0  0  0  0  0  0  0  0
  1  2  1  0  0  0  0
  2  3  2  0  0  0  0
  2  4  1  0  0  0  0
  4  5  1  0  0  0  0
  4  6  1  0  0  0  0
  4  7  1  0  0  0  0
  7  8  1  0  0  0  0
  7 16  2  0  0  0  0
  8  9  1  0  0  0  0
  8 10  2  0  0  0  0
 10 11  1  0  0  0  0
 10 12  1  0  0  0  0
 12 13  1  0  0  0  0
 12 14  2  0  0  0  0
 14 15  1  0  0  0  0
 14 16  1  0  0  0  0
 16 17  1  0  0  0  0
M  CHG  1   1  -1
M  END
>  <Catalog ID>
Z104478552

>  <a_acc>
0

>  <a_don>
0

>  <a_heavy>
12

>  <logP>
2.9719999

>  <logS>
-3.1447799

>  <TPSA>
40.130001

>  <Weight>
204.032

$$$$
Z56839706
  MOE2024           3D

 17 18  0  0  0  0  0  0  0  0999 V2000
    1.0050   -5.5830   -0.0020 O   0  5  0  0  0  0  0  0  0  0  0  0
   -0.0390   -4.9000   -0.0070 C   0  0  0  0  0  0  0  0  0  0  0  0
   -1.1330   -5.4970   -0.0150 O   0  0  0  0  0  0  0  0  0  0  0  0
    0.0580   -3.4480   -0.0030 C   0  0  0  0  0  0  0  0  0  0  0  0
    1.1740   -2.6740    0.0060 C   0  0  0  0  0  0  0  0  0  0  0  0
    2.1900   -3.0220    0.0120 H   0  0  0  0  0  0  0  0  0  0  0  0
    0.7670   -1.3290    0.0070 C   0  0  0  0  0  0  0  0  0  0  0  0
    1.4050   -0.0870    0.0140 C   0  0  0  0  0  0  0  0  0  0  0  0
    2.4790   -0.0480    0.0210 H   0  0  0  0  0  0  0  0  0  0  0  0
    0.6390    1.0620    0.0120 C   0  0  0  0  0  0  0  0  0  0  0  0
    1.1160    2.0270    0.0170 H   0  0  0  0  0  0  0  0  0  0  0  0
   -0.7580    0.9910    0.0020 C   0  0  0  0  0  0  0  0  0  0  0  0
   -1.3360    1.8980    0.0010 H   0  0  0  0  0  0  0  0  0  0  0  0
   -1.3930   -0.2360   -0.0050 C   0  0  0  0  0  0  0  0  0  0  0  0
   -2.4630   -0.3290   -0.0120 H   0  0  0  0  0  0  0  0  0  0  0  0
   -0.6130   -1.3840   -0.0020 C   0  0  0  0  0  0  0  0  0  0  0  0
   -1.0280   -2.6500   -0.0080 O   0  0  0  0  0  0  0  0  0  0  0  0
  1  2  1  0  0  0  0
  2  3  2  0  0  0  0
  2  4  1  0  0  0  0
  4  5  2  0  0  0  0
  4 17  1  0  0  0  0
  5  6  1  0  0  0  0
  5  7  1  0  0  0  0
  7  8  1  0  0  0  0
  7 16  2  0  0  0  0
  8  9  1  0  0  0  0
  8 10  2  0  0  0  0
 10 11  1  0  0  0  0
 10 12  1  0  0  0  0
 12 13  1  0  0  0  0
 12 14  2  0  0  0  0
 14 15  1  0  0  0  0
 14 16  1  0  0  0  0
 16 17  1  0  0  0  0
M  CHG  1   1  -1
M  END
>  <Catalog ID>
Z56839706

>  <a_acc>
0

>  <a_don>
0

>  <a_heavy>
12

>  <logP>
1.89

>  <logS>
-3.21298

>  <TPSA>
53.27

>  <Weight>
161.136

$$$$
Z330799458
  MOE2024           3D

 21 21  0  0  0  0  0  0  0  0999 V2000
    3.5830   -1.1430    0.0000 C   0  0  0  0  0  0  0  0  0  0  0  0
    4.6230   -0.8700   -0.0010 H   0  0  0  0  0  0  0  0  0  0  0  0
    3.3800   -1.7320   -0.8780 H   0  0  0  0  0  0  0  0  0  0  0  0
    3.3820   -1.7320    0.8790 H   0  0  0  0  0  0  0  0  0  0  0  0
    2.7150    0.0640    0.0010 N   0  0  0  0  0  0  0  0  0  0  0  0
    3.4010    1.3890   -0.0030 C   0  0  0  0  0  0  0  0  0  0  0  0
    4.4700    1.2770   -0.0030 H   0  0  0  0  0  0  0  0  0  0  0  0
    3.1060    1.9450    0.8700 H   0  0  0  0  0  0  0  0  0  0  0  0
    3.1060    1.9410   -0.8790 H   0  0  0  0  0  0  0  0  0  0  0  0
    1.3220   -0.0010    0.0010 C   0  0  0  0  0  0  0  0  0  0  0  0
    0.6460   -1.2240    0.0010 C   0  0  0  0  0  0  0  0  0  0  0  0
    1.1920   -2.1420    0.0010 H   0  0  0  0  0  0  0  0  0  0  0  0
   -0.7260   -1.2650    0.0010 C   0  0  0  0  0  0  0  0  0  0  0  0
   -1.2740   -2.1930    0.0000 H   0  0  0  0  0  0  0  0  0  0  0  0
   -1.4180   -0.0600    0.0000 C   0  0  0  0  0  0  0  0  0  0  0  0
   -0.6520    1.1000    0.0000 C   0  0  0  0  0  0  0  0  0  0  0  0
   -1.1800    2.0390    0.0000 H   0  0  0  0  0  0  0  0  0  0  0  0
    0.6710    1.1590    0.0000 N   0  0  0  0  0  0  0  0  0  0  0  0
   -2.8630    0.0130   -0.0010 C   0  0  0  0  0  0  0  0  0  0  0  0
   -3.5500   -1.0250   -0.0010 O   0  5  0  0  0  0  0  0  0  0  0  0
   -3.4430    1.1130   -0.0010 O   0  0  0  0  0  0  0  0  0  0  0  0
  1  2  1  0  0  0  0
  1  3  1  0  0  0  0
  1  4  1  0  0  0  0
  1  5  1  0  0  0  0
  5  6  1  0  0  0  0
  5 10  1  0  0  0  0
  6  7  1  0  0  0  0
  6  8  1  0  0  0  0
  6  9  1  0  0  0  0
 10 11  1  0  0  0  0
 10 18  2  0  0  0  0
 11 12  1  0  0  0  0
 11 13  2  0  0  0  0
 13 14  1  0  0  0  0
 13 15  1  0  0  0  0
 15 16  2  0  0  0  0
 15 19  1  0  0  0  0
 16 17  1  0  0  0  0
 16 18  1  0  0  0  0
 19 20  1  0  0  0  0
 19 21  2  0  0  0  0
M  CHG  1  20  -1
M  END
>  <Catalog ID>
Z330799458

>  <a_acc>
1

>  <a_don>
0

>  <a_heavy>
12

>  <logP>
0.79100001

>  <logS>
-0.59526002

>  <TPSA>
56.259998

>  <Weight>
165.172

$$$$
Z385481296
  MOE2024           3D

 18 19  0  0  0  0  0  0  0  0999 V2000
   -4.0510    3.7250   -0.0020 O   0  5  0  0  0  0  0  0  0  0  0  0
   -2.8610    4.0950   -0.0020 C   0  0  0  0  0  0  0  0  0  0  0  0
   -2.6200    5.3160   -0.0020 O   0  0  0  0  0  0  0  0  0  0  0  0
   -1.7800    3.1170   -0.0030 C   0  0  0  0  0  0  0  0  0  0  0  0
   -0.4270    3.5260   -0.0040 C   0  0  0  0  0  0  0  0  0  0  0  0
   -0.2290    4.5850   -0.0030 H   0  0  0  0  0  0  0  0  0  0  0  0
    0.6130    2.6270   -0.0050 C   0  0  0  0  0  0  0  0  0  0  0  0
    1.6340    2.9590   -0.0050 H   0  0  0  0  0  0  0  0  0  0  0  0
    0.3390    1.2560   -0.0050 C   0  0  0  0  0  0  0  0  0  0  0  0
    1.1310    0.0880   -0.0060 C   0  0  0  0  0  0  0  0  0  0  0  0
    2.2060    0.0930   -0.0070 H   0  0  0  0  0  0  0  0  0  0  0  0
    0.2930   -0.9780   -0.0070 C   0  0  0  0  0  0  0  0  0  0  0  0
    0.5390   -2.0250   -0.0070 H   0  0  0  0  0  0  0  0  0  0  0  0
   -1.0000   -0.5360   -0.0050 N   0  0  0  0  0  0  0  0  0  0  0  0
   -1.8520   -1.1040   -0.0050 H   0  0  0  0  0  0  0  0  0  0  0  0
   -0.9850    0.8340   -0.0050 C   0  0  0  0  0  0  0  0  0  0  0  0
   -2.0340    1.7520   -0.0040 C   0  0  0  0  0  0  0  0  0  0  0  0
   -3.0550    1.4090   -0.0030 H   0  0  0  0  0  0  0  0  0  0  0  0
  1  2  1  0  0  0  0
  2  3  2  0  0  0  0
  2  4  1  0  0  0  0
  4  5  1  0  0  0  0
  4 17  2  0  0  0  0
  5  6  1  0  0  0  0
  5  7  2  0  0  0  0
  7  8  1  0  0  0  0
  7  9  1  0  0  0  0
  9 10  1  0  0  0  0
  9 16  2  0  0  0  0
 10 11  1  0  0  0  0
 10 12  2  0  0  0  0
 12 13  1  0  0  0  0
 12 14  1  0  0  0  0
 14 15  1  0  0  0  0
 14 16  1  0  0  0  0
 16 17  1  0  0  0  0
 17 18  1  0  0  0  0
M  CHG  1   1  -1
M  END
>  <Catalog ID>
Z385481296

>  <a_acc>
0

>  <a_don>
1

>  <a_heavy>
12

>  <logP>
2.1099999

>  <logS>
-1.9046299

>  <TPSA>
55.919998

>  <Weight>
160.15199

$$$$
Z104476536
  MOE2024           3D

 22 22  0  0  0  0  0  0  0  0999 V2000
    3.4640   -1.4280   -0.5590 C   0  0  0  0  0  0  0  0  0  0  0  0
    4.4690   -1.2370   -0.8900 H   0  0  0  0  0  0  0  0  0  0  0  0
    2.9350   -1.9980   -1.3020 H   0  0  0  0  0  0  0  0  0  0  0  0
    3.4830   -1.9420    0.3850 H   0  0  0  0  0  0  0  0  0  0  0  0
    2.8190   -0.1870   -0.3920 O   0  0  0  0  0  0  0  0  0  0  0  0
    1.4760   -0.1170   -0.1450 C   0  0  0  0  0  0  0  0  0  0  0  0
    0.7540   -1.2160    0.3050 C   0  0  0  0  0  0  0  0  0  0  0  0
    1.2250   -2.1620    0.4860 H   0  0  0  0  0  0  0  0  0  0  0  0
   -0.6050   -1.1020    0.5310 C   0  0  0  0  0  0  0  0  0  0  0  0
   -1.1710   -1.9500    0.8700 H   0  0  0  0  0  0  0  0  0  0  0  0
   -1.2400    0.1060    0.3210 C   0  0  0  0  0  0  0  0  0  0  0  0
   -2.3000    0.1900    0.4960 H   0  0  0  0  0  0  0  0  0  0  0  0
   -0.5540    1.2440   -0.1120 C   0  0  0  0  0  0  0  0  0  0  0  0
   -1.3000    2.4830   -0.2760 C   0  0  0  0  0  0  0  0  0  0  0  0
   -2.4860    2.4390   -0.6570 O   0  5  0  0  0  0  0  0  0  0  0  0
   -0.8360    3.5950    0.0380 O   0  0  0  0  0  0  0  0  0  0  0  0
    0.8200    1.1010   -0.3580 C   0  0  0  0  0  0  0  0  0  0  0  0
    1.5320    2.1370   -0.8590 O   0  0  0  0  0  0  0  0  0  0  0  0
    2.1670    2.9600    0.0900 C   0  0  0  0  0  0  0  0  0  0  0  0
    2.5460    3.8250   -0.4200 H   0  0  0  0  0  0  0  0  0  0  0  0
    2.9670    2.4060    0.5450 H   0  0  0  0  0  0  0  0  0  0  0  0
    1.4480    3.2600    0.8320 H   0  0  0  0  0  0  0  0  0  0  0  0
  1  2  1  0  0  0  0
  1  3  1  0  0  0  0
  1  4  1  0  0  0  0
  1  5  1  0  0  0  0
  5  6  1  0  0  0  0
  6  7  1  0  0  0  0
  6 17  2  0  0  0  0
  7  8  1  0  0  0  0
  7  9  2  0  0  0  0
  9 10  1  0  0  0  0
  9 11  1  0  0  0  0
 11 12  1  0  0  0  0
 11 13  2  0  0  0  0
 13 14  1  0  0  0  0
 13 17  1  0  0  0  0
 14 15  1  0  0  0  0
 14 16  2  0  0  0  0
 17 18  1  0  0  0  0
 18 19  1  0  0  0  0
 19 20  1  0  0  0  0
 19 21  1  0  0  0  0
 19 22  1  0  0  0  0
M  CHG  1  15  -1
M  END
>  <Catalog ID>
Z104476536

>  <a_acc>
2

>  <a_don>
0

>  <a_heavy>
13

>  <logP>
1.36374

>  <logS>
-1.71549

>  <TPSA>
58.59

>  <Weight>
181.16699

$$$$
Z57070074
  MOE2024           3D

 24 25  0  0  0  0  0  0  0  0999 V2000
   -2.8900   -4.5530   -0.0020 C   0  0  0  0  0  0  0  0  0  0  0  0
   -2.0160   -5.1730   -0.0010 H   0  0  0  0  0  0  0  0  0  0  0  0
   -3.4730   -4.7760   -0.8760 H   0  0  0  0  0  0  0  0  0  0  0  0
   -3.4760   -4.7760    0.8700 H   0  0  0  0  0  0  0  0  0  0  0  0
   -2.5460   -3.0780   -0.0020 C   0  0  0  0  0  0  0  0  0  0  0  0
   -3.4910   -2.3260   -0.0030 O   0  0  0  0  0  0  0  0  0  0  0  0
   -1.1710   -2.6510    0.0000 C   0  0  0  0  0  0  0  0  0  0  0  0
   -0.0200   -3.4010    0.0020 C   0  0  0  0  0  0  0  0  0  0  0  0
    0.0710   -4.4720    0.0040 H   0  0  0  0  0  0  0  0  0  0  0  0
    1.0780   -2.6110    0.0030 N   0  0  0  0  0  0  0  0  0  0  0  0
    2.4800   -3.0590    0.0060 C   0  0  0  0  0  0  0  0  0  0  0  0
    2.5180   -4.1320    0.0030 H   0  0  0  0  0  0  0  0  0  0  0  0
    2.9690   -2.6840    0.8870 H   0  0  0  0  0  0  0  0  0  0  0  0
    2.9740   -2.6800   -0.8700 H   0  0  0  0  0  0  0  0  0  0  0  0
    0.6580   -1.3050    0.0020 C   0  0  0  0  0  0  0  0  0  0  0  0
    1.3910   -0.1160    0.0010 C   0  0  0  0  0  0  0  0  0  0  0  0
    2.4660   -0.1420    0.0030 H   0  0  0  0  0  0  0  0  0  0  0  0
    0.7180    1.0840   -0.0010 C   0  0  0  0  0  0  0  0  0  0  0  0
    1.2600    2.0130   -0.0010 H   0  0  0  0  0  0  0  0  0  0  0  0
   -0.6790    1.1100   -0.0020 C   0  0  0  0  0  0  0  0  0  0  0  0
   -1.1890    2.0570   -0.0040 H   0  0  0  0  0  0  0  0  0  0  0  0
   -1.4000   -0.0630   -0.0020 C   0  0  0  0  0  0  0  0  0  0  0  0
   -2.4750   -0.0450   -0.0030 H   0  0  0  0  0  0  0  0  0  0  0  0
   -0.7330   -1.2940    0.0000 C   0  0  0  0  0  0  0  0  0  0  0  0
  1  2  1  0  0  0  0
  1  3  1  0  0  0  0
  1  4  1  0  0  0  0
  1  5  1  0  0  0  0
  5  6  2  0  0  0  0
  5  7  1  0  0  0  0
  7  8  2  0  0  0  0
  7 24  1  0  0  0  0
  8  9  1  0  0  0  0
  8 10  1  0  0  0  0
 10 11  1  0  0  0  0
 10 15  1  0  0  0  0
 11 12  1  0  0  0  0
 11 13  1  0  0  0  0
 11 14  1  0  0  0  0
 15 16  1  0  0  0  0
 15 24  2  0  0  0  0
 16 17  1  0  0  0  0
 16 18  2  0  0  0  0
 18 19  1  0  0  0  0
 18 20  1  0  0  0  0
 20 21  1  0  0  0  0
 20 22  2  0  0  0  0
 22 23  1  0  0  0  0
 22 24  1  0  0  0  0
M  END
>  <Catalog ID>
Z57070074

>  <a_acc>
1

>  <a_don>
0

>  <a_heavy>
13

>  <logP>
2.5150001

>  <logS>
-1.88106

>  <TPSA>
22

>  <Weight>
173.215

$$$$
Z385446074
  MOE2024           3D

 21 22  0  0  0  0  0  0  0  0999 V2000
    2.7980    0.0600    0.0000 C   0  0  0  0  0  0  0  0  0  0  0  0
    3.1900   -0.9410    0.0000 H   0  0  0  0  0  0  0  0  0  0  0  0
    3.1580    0.5700    0.8750 H   0  0  0  0  0  0  0  0  0  0  0  0
    3.1580    0.5690   -0.8760 H   0  0  0  0  0  0  0  0  0  0  0  0
    1.2810    0.0490    0.0000 C   0  0  0  0  0  0  0  0  0  0  0  0
    0.5890   -1.1700    0.0020 C   0  0  0  0  0  0  0  0  0  0  0  0
    1.1330   -2.0950    0.0020 H   0  0  0  0  0  0  0  0  0  0  0  0
   -0.7880   -1.1990    0.0020 C   0  0  0  0  0  0  0  0  0  0  0  0
   -1.3330   -2.1270    0.0030 H   0  0  0  0  0  0  0  0  0  0  0  0
   -1.5130   -0.0040    0.0020 C   0  0  0  0  0  0  0  0  0  0  0  0
   -2.9040    0.3040    0.0030 C   0  0  0  0  0  0  0  0  0  0  0  0
   -2.9740    1.6720    0.0010 C   0  0  0  0  0  0  0  0  0  0  0  0
   -3.8760    2.2580    0.0010 H   0  0  0  0  0  0  0  0  0  0  0  0
   -1.7320    2.2180    0.0000 N   0  0  0  0  0  0  0  0  0  0  0  0
   -1.5080    3.2160   -0.0010 H   0  0  0  0  0  0  0  0  0  0  0  0
   -0.8170    1.2010    0.0000 C   0  0  0  0  0  0  0  0  0  0  0  0
    0.5800    1.2340   -0.0010 C   0  0  0  0  0  0  0  0  0  0  0  0
    1.0880    2.1800   -0.0020 H   0  0  0  0  0  0  0  0  0  0  0  0
   -4.0020   -0.6500    0.0040 C   0  0  0  0  0  0  0  0  0  0  0  0
   -3.8060   -1.8800    0.0040 O   0  5  0  0  0  0  0  0  0  0  0  0
   -5.1790   -0.2410    0.0050 O   0  0  0  0  0  0  0  0  0  0  0  0
  1  2  1  0  0  0  0
  1  3  1  0  0  0  0
  1  4  1  0  0  0  0
  1  5  1  0  0  0  0
  5  6  1  0  0  0  0
  5 17  2  0  0  0  0
  6  7  1  0  0  0  0
  6  8  2  0  0  0  0
  8  9  1  0  0  0  0
  8 10  1  0  0  0  0
 10 11  1  0  0  0  0
 10 16  2  0  0  0  0
 11 12  2  0  0  0  0
 11 19  1  0  0  0  0
 12 13  1  0  0  0  0
 12 14  1  0  0  0  0
 14 15  1  0  0  0  0
 14 16  1  0  0  0  0
 16 17  1  0  0  0  0
 17 18  1  0  0  0  0
 19 20  1  0  0  0  0
 19 21  2  0  0  0  0
M  CHG  1  20  -1
M  END
>  <Catalog ID>
Z385446074

>  <a_acc>
0

>  <a_don>
1

>  <a_heavy>
13

>  <logP>
2.405

>  <logS>
-2.3785501

>  <TPSA>
55.919998

>  <Weight>
174.179

$$$$
Z1741960310
  MOE2024           3D

 25 26  0  0  0  0  0  0  0  0999 V2000
   -4.1510   -5.0320    0.2600 N   0  3  0  0  0  0  0  0  0  0  0  0
   -4.1950   -6.0530    0.1580 H   0  0  0  0  0  0  0  0  0  0  0  0
   -4.7460   -4.6190   -0.4680 H   0  0  0  0  0  0  0  0  0  0  0  0
   -4.5480   -4.7900    1.1760 H   0  0  0  0  0  0  0  0  0  0  0  0
   -2.7470   -4.5520    0.1400 C   0  0  0  0  0  0  0  0  0  0  0  0
   -2.3430   -4.8280   -0.8210 H   0  0  0  0  0  0  0  0  0  0  0  0
   -2.1350   -5.0090    0.9020 H   0  0  0  0  0  0  0  0  0  0  0  0
   -2.6650   -3.0320    0.2900 C   0  0  0  0  0  0  0  0  0  0  0  0
   -3.0490   -2.7350    1.2510 H   0  0  0  0  0  0  0  0  0  0  0  0
   -3.2380   -2.5510   -0.4830 H   0  0  0  0  0  0  0  0  0  0  0  0
   -1.2300   -2.5570    0.1850 C   0  0  0  0  0  0  0  0  0  0  0  0
   -0.0960   -3.2620   -0.0530 C   0  0  0  0  0  0  0  0  0  0  0  0
    0.0470   -4.3150   -0.2220 H   0  0  0  0  0  0  0  0  0  0  0  0
    0.9760   -2.4130   -0.0600 N   0  0  0  0  0  0  0  0  0  0  0  0
    1.9600   -2.6610   -0.2150 H   0  0  0  0  0  0  0  0  0  0  0  0
    0.5190   -1.1430    0.1770 C   0  0  0  0  0  0  0  0  0  0  0  0
    1.2200    0.0650    0.2670 C   0  0  0  0  0  0  0  0  0  0  0  0
    2.2890    0.0830    0.1420 H   0  0  0  0  0  0  0  0  0  0  0  0
    0.5170    1.2220    0.5180 C   0  0  0  0  0  0  0  0  0  0  0  0
    1.0080    2.1750    0.5970 H   0  0  0  0  0  0  0  0  0  0  0  0
   -0.8700    1.1520    0.6740 C   0  0  0  0  0  0  0  0  0  0  0  0
   -1.5160    2.2650    0.9120 F   0  0  0  0  0  0  0  0  0  0  0  0
   -1.5770   -0.0210    0.5900 C   0  0  0  0  0  0  0  0  0  0  0  0
   -2.6420   -0.0320    0.7150 H   0  0  0  0  0  0  0  0  0  0  0  0
   -0.8650   -1.2000    0.3350 C   0  0  0  0  0  0  0  0  0  0  0  0
  1  2  1  0  0  0  0
  1  3  1  0  0  0  0
  1  4  1  0  0  0  0
  1  5  1  0  0  0  0
  5  6  1  0  0  0  0
  5  7  1  0  0  0  0
  5  8  1  0  0  0  0
  8  9  1  0  0  0  0
  8 10  1  0  0  0  0
  8 11  1  0  0  0  0
 11 12  2  0  0  0  0
 11 25  1  0  0  0  0
 12 13  1  0  0  0  0
 12 14  1  0  0  0  0
 14 15  1  0  0  0  0
 14 16  1  0  0  0  0
 16 17  1  0  0  0  0
 16 25  2  0  0  0  0
 17 18  1  0  0  0  0
 17 19  2  0  0  0  0
 19 20  1  0  0  0  0
 19 21  1  0  0  0  0
 21 22  1  0  0  0  0
 21 23  2  0  0  0  0
 23 24  1  0  0  0  0
 23 25  1  0  0  0  0
M  CHG  1   1   1
M  END
>  <Catalog ID>
Z1741960310

>  <a_acc>
0

>  <a_don>
1

>  <a_heavy>
13

>  <logP>
1.806

>  <logS>
-1.67176

>  <TPSA>
43.43

>  <Weight>
179.218

$$$$
Z969591530
  MOE2024           3D

 20 21  0  0  0  0  0  0  0  0999 V2000
    0.0200   -5.7750   -0.6050 N   0  0  0  0  0  0  0  0  0  0  0  0
   -0.9750   -5.7640   -0.8160 H   0  0  0  0  0  0  0  0  0  0  0  0
    0.2390   -6.7380   -0.3730 H   0  0  0  0  0  0  0  0  0  0  0  0
    0.1230   -4.9870    0.8520 S   0  0  0  0  0  0  0  0  0  0  0  0
   -1.0170   -5.4930    1.5750 O   0  0  0  0  0  0  0  0  0  0  0  0
    1.4530   -5.2660    1.3380 O   0  0  0  0  0  0  0  0  0  0  0  0
   -0.0040   -3.2060    0.4540 C   0  0  0  0  0  0  0  0  0  0  0  0
    1.0440   -2.3960    0.7520 N   0  0  0  0  0  0  0  0  0  0  0  0
    1.9280   -2.6920    1.1810 H   0  0  0  0  0  0  0  0  0  0  0  0
    0.7050   -1.1480    0.3510 C   0  0  0  0  0  0  0  0  0  0  0  0
    1.3620    0.0840    0.3900 C   0  0  0  0  0  0  0  0  0  0  0  0
    2.3500    0.1630    0.8090 H   0  0  0  0  0  0  0  0  0  0  0  0
    0.7140    1.1870   -0.1190 C   0  0  0  0  0  0  0  0  0  0  0  0
    1.1910    2.1520   -0.1050 H   0  0  0  0  0  0  0  0  0  0  0  0
   -0.5730    1.0720   -0.6630 C   0  0  0  0  0  0  0  0  0  0  0  0
   -1.0580    1.9490   -1.0540 H   0  0  0  0  0  0  0  0  0  0  0  0
   -1.2110   -0.1490   -0.6960 C   0  0  0  0  0  0  0  0  0  0  0  0
   -2.1970   -0.2650   -1.1070 H   0  0  0  0  0  0  0  0  0  0  0  0
   -0.5610   -1.2700   -0.1840 C   0  0  0  0  0  0  0  0  0  0  0  0
   -0.9830   -2.5620   -0.1110 N   0  0  0  0  0  0  0  0  0  0  0  0
  1  2  1  0  0  0  0
  1  3  1  0  0  0  0
  1  4  1  0  0  0  0
  4  5  2  0  0  0  0
  4  6  2  0  0  0  0
  4  7  1  0  0  0  0
  7  8  1  0  0  0  0
  7 20  2  0  0  0  0
  8  9  1  0  0  0  0
  8 10  1  0  0  0  0
 10 11  1  0  0  0  0
 10 19  2  0  0  0  0
 11 12  1  0  0  0  0
 11 13  2  0  0  0  0
 13 14  1  0  0  0  0
 13 15  1  0  0  0  0
 15 16  1  0  0  0  0
 15 17  2  0  0  0  0
 17 18  1  0  0  0  0
 17 19  1  0  0  0  0
 19 20  1  0  0  0  0
M  END
>  <Catalog ID>
Z969591530

>  <a_acc>
4

>  <a_don>
3

>  <a_heavy>
13

>  <logP>
0.082999997

>  <logS>
-2.63293

>  <TPSA>
88.839996

>  <Weight>
197.218

$$$$
Z53116455
  MOE2024           3D

 23 24  0  0  0  0  0  0  0  0999 V2000
   -5.1030   -4.1230   -0.0020 O   0  5  0  0  0  0  0  0  0  0  0  0
   -4.2350   -5.0000   -0.0030 C   0  0  0  0  0  0  0  0  0  0  0  0
   -4.4950   -6.2030   -0.0040 O   0  0  0  0  0  0  0  0  0  0  0  0
   -2.7840   -4.5980   -0.0030 C   0  0  0  0  0  0  0  0  0  0  0  0
   -2.3370   -5.0190   -0.8830 H   0  0  0  0  0  0  0  0  0  0  0  0
   -2.3350   -5.0260    0.8720 H   0  0  0  0  0  0  0  0  0  0  0  0
   -2.6320   -3.0720    0.0020 C   0  0  0  0  0  0  0  0  0  0  0  0
   -3.1170   -2.6690    0.8730 H   0  0  0  0  0  0  0  0  0  0  0  0
   -3.1190   -2.6640   -0.8660 H   0  0  0  0  0  0  0  0  0  0  0  0
   -1.2190   -2.6260    0.0010 N   0  0  0  0  0  0  0  0  0  0  0  0
   -0.0710   -3.3590    0.0020 C   0  0  0  0  0  0  0  0  0  0  0  0
   -0.0940   -4.4340    0.0020 H   0  0  0  0  0  0  0  0  0  0  0  0
    1.0130   -2.6610    0.0010 N   0  0  0  0  0  0  0  0  0  0  0  0
    0.5740   -1.3730    0.0010 C   0  0  0  0  0  0  0  0  0  0  0  0
    1.3090   -0.1890    0.0000 C   0  0  0  0  0  0  0  0  0  0  0  0
    2.3800   -0.2500    0.0000 H   0  0  0  0  0  0  0  0  0  0  0  0
    0.6430    1.0180    0.0000 C   0  0  0  0  0  0  0  0  0  0  0  0
    1.1940    1.9420   -0.0010 H   0  0  0  0  0  0  0  0  0  0  0  0
   -0.7580    1.0560    0.0000 C   0  0  0  0  0  0  0  0  0  0  0  0
   -1.2570    2.0090    0.0000 H   0  0  0  0  0  0  0  0  0  0  0  0
   -1.4910   -0.1100    0.0010 C   0  0  0  0  0  0  0  0  0  0  0  0
   -2.5670   -0.0960    0.0010 H   0  0  0  0  0  0  0  0  0  0  0  0
   -0.8080   -1.3300    0.0010 C   0  0  0  0  0  0  0  0  0  0  0  0
  1  2  1  0  0  0  0
  2  3  2  0  0  0  0
  2  4  1  0  0  0  0
  4  5  1  0  0  0  0
  4  6  1  0  0  0  0
  4  7  1  0  0  0  0
  7  8  1  0  0  0  0
  7  9  1  0  0  0  0
  7 10  1  0  0  0  0
 10 11  1  0  0  0  0
 10 23  1  0  0  0  0
 11 12  1  0  0  0  0
 11 13  2  0  0  0  0
 13 14  1  0  0  0  0
 14 15  1  0  0  0  0
 14 23  2  0  0  0  0
 15 16  1  0  0  0  0
 15 17  2  0  0  0  0
 17 18  1  0  0  0  0
 17 19  1  0  0  0  0
 19 20  1  0  0  0  0
 19 21  2  0  0  0  0
 21 22  1  0  0  0  0
 21 23  1  0  0  0  0
M  CHG  1   1  -1
M  END
>  <Catalog ID>
Z53116455

>  <a_acc>
1

>  <a_don>
0

>  <a_heavy>
14

>  <logP>
1.392

>  <logS>
-1.8368

>  <TPSA>
57.950001

>  <Weight>
189.194

$$$$
Z45636695
  MOE2024           3D

 22 22  0  0  0  0  0  0  0  0999 V2000
    3.6880   -2.0480    0.6970 C   0  0  0  0  0  0  0  0  0  0  0  0
    4.3710   -2.8670    0.8030 H   0  0  0  0  0  0  0  0  0  0  0  0
    2.6940   -2.4050    0.8840 H   0  0  0  0  0  0  0  0  0  0  0  0
    3.9290   -1.2990    1.4240 H   0  0  0  0  0  0  0  0  0  0  0  0
    3.7990   -1.3720   -0.9460 S   0  0  0  0  0  0  0  0  0  0  0  0
    3.3110   -2.3310   -1.9050 O   0  0  0  0  0  0  0  0  0  0  0  0
    5.0870   -0.7440   -1.0950 O   0  0  0  0  0  0  0  0  0  0  0  0
    2.6990   -0.0590   -0.8710 N   0  0  0  0  0  0  0  0  0  0  0  0
    3.2050    0.8150   -0.7900 H   0  0  0  0  0  0  0  0  0  0  0  0
    1.3730   -0.0950   -0.4700 C   0  0  0  0  0  0  0  0  0  0  0  0
    0.5450   -1.1850   -0.7130 C   0  0  0  0  0  0  0  0  0  0  0  0
    0.9090   -2.0290   -1.2690 H   0  0  0  0  0  0  0  0  0  0  0  0
   -0.7590   -1.1980   -0.2550 C   0  0  0  0  0  0  0  0  0  0  0  0
   -1.3910   -2.0500   -0.4460 H   0  0  0  0  0  0  0  0  0  0  0  0
   -1.2980   -0.1240    0.4570 C   0  0  0  0  0  0  0  0  0  0  0  0
   -0.4610    0.9730    0.6710 C   0  0  0  0  0  0  0  0  0  0  0  0
   -0.8600    1.8190    1.2070 H   0  0  0  0  0  0  0  0  0  0  0  0
    0.8430    0.9900    0.2160 C   0  0  0  0  0  0  0  0  0  0  0  0
    1.4520    1.8530    0.4030 H   0  0  0  0  0  0  0  0  0  0  0  0
   -2.6680   -0.1450    0.9520 C   0  0  0  0  0  0  0  0  0  0  0  0
   -3.3980   -1.1350    0.7620 O   0  5  0  0  0  0  0  0  0  0  0  0
   -3.1280    0.8260    1.5810 O   0  0  0  0  0  0  0  0  0  0  0  0
  1  2  1  0  0  0  0
  1  3  1  0  0  0  0
  1  4  1  0  0  0  0
  1  5  1  0  0  0  0
  5  6  2  0  0  0  0
  5  7  2  0  0  0  0
  5  8  1  0  0  0  0
  8  9  1  0  0  0  0
  8 10  1  0  0  0  0
 10 11  1  0  0  0  0
 10 18  2  0  0  0  0
 11 12  1  0  0  0  0
 11 13  2  0  0  0  0
 13 14  1  0  0  0  0
 13 15  1  0  0  0  0
 15 16  2  0  0  0  0
 15 20  1  0  0  0  0
 16 17  1  0  0  0  0
 16 18  1  0  0  0  0
 18 19  1  0  0  0  0
 20 21  1  0  0  0  0
 20 22  2  0  0  0  0
M  CHG  1  21  -1
M  END
>  <Catalog ID>
Z45636695

>  <a_acc>
2

>  <a_don>
1

>  <a_heavy>
14

>  <logP>
0.79900002

>  <logS>
-1.45271

>  <TPSA>
86.300003

>  <Weight>
214.22099

$$$$
Z53116464
  MOE2024           3D

 25 26  0  0  0  0  0  0  0  0999 V2000
   -4.5620   -6.3650    0.0090 N   0  0  0  0  0  0  0  0  0  0  0  0
   -5.5430   -6.6520    0.0110 H   0  0  0  0  0  0  0  0  0  0  0  0
   -3.8730   -7.1160    0.0160 H   0  0  0  0  0  0  0  0  0  0  0  0
   -4.2680   -5.0550   -0.0020 C   0  0  0  0  0  0  0  0  0  0  0  0
   -5.1500   -4.2370   -0.0110 O   0  0  0  0  0  0  0  0  0  0  0  0
   -2.8160   -4.6270   -0.0050 C   0  0  0  0  0  0  0  0  0  0  0  0
   -2.3500   -5.0310   -0.8840 H   0  0  0  0  0  0  0  0  0  0  0  0
   -2.3460   -5.0340    0.8710 H   0  0  0  0  0  0  0  0  0  0  0  0
   -2.6710   -3.0970   -0.0030 C   0  0  0  0  0  0  0  0  0  0  0  0
   -3.1520   -2.6890    0.8690 H   0  0  0  0  0  0  0  0  0  0  0  0
   -3.1530   -2.6870   -0.8730 H   0  0  0  0  0  0  0  0  0  0  0  0
   -1.2580   -2.6500   -0.0040 N   0  0  0  0  0  0  0  0  0  0  0  0
   -0.1070   -3.3790   -0.0050 C   0  0  0  0  0  0  0  0  0  0  0  0
   -0.1130   -4.4540   -0.0070 H   0  0  0  0  0  0  0  0  0  0  0  0
    0.9720   -2.6780   -0.0040 N   0  0  0  0  0  0  0  0  0  0  0  0
    0.5300   -1.3920   -0.0020 C   0  0  0  0  0  0  0  0  0  0  0  0
    1.2620   -0.2060    0.0000 C   0  0  0  0  0  0  0  0  0  0  0  0
    2.3350   -0.2640   -0.0010 H   0  0  0  0  0  0  0  0  0  0  0  0
    0.5940    0.9990    0.0020 C   0  0  0  0  0  0  0  0  0  0  0  0
    1.1430    1.9240    0.0030 H   0  0  0  0  0  0  0  0  0  0  0  0
   -0.8060    1.0330    0.0020 C   0  0  0  0  0  0  0  0  0  0  0  0
   -1.3060    1.9860    0.0030 H   0  0  0  0  0  0  0  0  0  0  0  0
   -1.5380   -0.1340    0.0000 C   0  0  0  0  0  0  0  0  0  0  0  0
   -2.6140   -0.1140    0.0000 H   0  0  0  0  0  0  0  0  0  0  0  0
   -0.8520   -1.3520   -0.0020 C   0  0  0  0  0  0  0  0  0  0  0  0
  1  2  1  0  0  0  0
  1  3  1  0  0  0  0
  1  4  1  0  0  0  0
  4  5  2  0  0  0  0
  4  6  1  0  0  0  0
  6  7  1  0  0  0  0
  6  8  1  0  0  0  0
  6  9  1  0  0  0  0
  9 10  1  0  0  0  0
  9 11  1  0  0  0  0
  9 12  1  0  0  0  0
 12 13  1  0  0  0  0
 12 25  1  0  0  0  0
 13 14  1  0  0  0  0
 13 15  2  0  0  0  0
 15 16  1  0  0  0  0
 16 17  1  0  0  0  0
 16 25  2  0  0  0  0
 17 18  1  0  0  0  0
 17 19  2  0  0  0  0
 19 20  1  0  0  0  0
 19 21  1  0  0  0  0
 21 22  1  0  0  0  0
 21 23  2  0  0  0  0
 23 24  1  0  0  0  0
 23 25  1  0  0  0  0
M  END
>  <Catalog ID>
Z53116464

>  <a_acc>
2

>  <a_don>
1

>  <a_heavy>
14

>  <logP>
0.537

>  <logS>
-1.8590699

>  <TPSA>
60.91

>  <Weight>
189.218

$$$$
Z104503564
  MOE2024           3D

 15 15  0  0  0  0  0  0  0  0999 V2000
    3.5130    1.0730   -0.0040 O   0  5  0  0  0  0  0  0  0  0  0  0
    2.8910   -0.0030   -0.0060 C   0  0  0  0  0  0  0  0  0  0  0  0
    3.5340   -1.0680   -0.0110 O   0  0  0  0  0  0  0  0  0  0  0  0
    1.4340   -0.0140   -0.0040 C   0  0  0  0  0  0  0  0  0  0  0  0
    0.7110   -1.2130   -0.0070 C   0  0  0  0  0  0  0  0  0  0  0  0
    1.2620   -2.1390   -0.0110 H   0  0  0  0  0  0  0  0  0  0  0  0
   -0.6740   -1.2350   -0.0050 C   0  0  0  0  0  0  0  0  0  0  0  0
   -1.2050   -2.1690   -0.0070 H   0  0  0  0  0  0  0  0  0  0  0  0
   -1.3780   -0.0440    0.0010 C   0  0  0  0  0  0  0  0  0  0  0  0
   -2.7230   -0.0610    0.0030 O   0  0  0  0  0  0  0  0  0  0  0  0
   -3.0950    0.8420    0.0060 H   0  0  0  0  0  0  0  0  0  0  0  0
   -0.6800    1.1560    0.0030 C   0  0  0  0  0  0  0  0  0  0  0  0
   -1.5690    2.6650    0.0100 Cl  0  0  0  0  0  0  0  0  0  0  0  0
    0.7000    1.1770    0.0010 C   0  0  0  0  0  0  0  0  0  0  0  0
    1.2250    2.1160    0.0030 H   0  0  0  0  0  0  0  0  0  0  0  0
  1  2  1  0  0  0  0
  2  3  2  0  0  0  0
  2  4  1  0  0  0  0
  4  5  1  0  0  0  0
  4 14  2  0  0  0  0
  5  6  1  0  0  0  0
  5  7  2  0  0  0  0
  7  8  1  0  0  0  0
  7  9  1  0  0  0  0
  9 10  1  0  0  0  0
  9 12  2  0  0  0  0
 10 11  1  0  0  0  0
 12 13  1  0  0  0  0
 12 14  1  0  0  0  0
 14 15  1  0  0  0  0
M  CHG  1   1  -1
M  END
>  <Catalog ID>
Z104503564

>  <a_acc>
1

>  <a_don>
1

>  <a_heavy>
11

>  <logP>
2.023

>  <logS>
-1.98707

>  <TPSA>
60.360001

>  <Weight>
171.55899

$$$$
Z1201618250
  MOE2024           3D

 20 21  0  0  0  0  0  0  0  0999 V2000
   -3.5000   -2.6370   -0.4950 O   0  5  0  0  0  0  0  0  0  0  0  0
   -2.5690   -3.1990    0.1030 C   0  0  0  0  0  0  0  0  0  0  0  0
   -2.7710   -4.2940    0.6560 O   0  0  0  0  0  0  0  0  0  0  0  0
   -1.2330   -2.6520    0.0720 C   0  0  0  0  0  0  0  0  0  0  0  0
   -0.0820   -3.3600   -0.0560 C   0  0  0  0  0  0  0  0  0  0  0  0
    0.0440   -4.4280   -0.1080 H   0  0  0  0  0  0  0  0  0  0  0  0
    0.9660   -2.5720   -0.1410 O   0  0  0  0  0  0  0  0  0  0  0  0
    0.5290   -1.3450   -0.0540 C   0  0  0  0  0  0  0  0  0  0  0  0
    1.4670   -0.1580   -0.1390 C   0  0  0  0  0  0  0  0  0  0  0  0
    1.7900   -0.0560   -1.1600 H   0  0  0  0  0  0  0  0  0  0  0  0
    2.3320   -0.3350    0.4750 H   0  0  0  0  0  0  0  0  0  0  0  0
    0.7460    1.1250    0.3220 C   0  0  0  0  0  0  0  0  0  0  0  0
    1.2830    1.9900   -0.0280 H   0  0  0  0  0  0  0  0  0  0  0  0
    0.7510    1.1470    1.3980 H   0  0  0  0  0  0  0  0  0  0  0  0
   -0.7260    1.1840   -0.1500 C   0  0  0  0  0  0  0  0  0  0  0  0
   -0.7670    1.2460   -1.2220 H   0  0  0  0  0  0  0  0  0  0  0  0
   -1.2010    2.0600    0.2530 H   0  0  0  0  0  0  0  0  0  0  0  0
   -1.5130   -0.0490    0.2810 C   0  0  0  0  0  0  0  0  0  0  0  0
   -2.5920    0.1270    0.7850 O   0  0  0  0  0  0  0  0  0  0  0  0
   -0.8170   -1.2940    0.1080 C   0  0  0  0  0  0  0  0  0  0  0  0
  1  2  1  0  0  0  0
  2  3  2  0  0  0  0
  2  4  1  0  0  0  0
  4  5  2  0  0  0  0
  4 20  1  0  0  0  0
  5  6  1  0  0  0  0
  5  7  1  0  0  0  0
  7  8  1  0  0  0  0
  8  9  1  0  0  0  0
  8 20  2  0  0  0  0
  9 10  1  0  0  0  0
  9 11  1  0  0  0  0
  9 12  1  0  0  0  0
 12 13  1  0  0  0  0
 12 14  1  0  0  0  0
 12 15  1  0  0  0  0
 15 16  1  0  0  0  0
 15 17  1  0  0  0  0
 15 18  1  0  0  0  0
 18 19  2  0  0  0  0
 18 20  1  0  0  0  0
M  CHG  1   1  -1
M  END
>  <Catalog ID>
Z1201618250

>  <a_acc>
1

>  <a_don>
0

>  <a_heavy>
13

>  <logP>
0.579

>  <logS>
-1.9387701

>  <TPSA>
70.339996

>  <Weight>
179.151

$$$$
Z2472857622
  MOE2024           3D

 21 21  0  0  0  0  0  0  0  0999 V2000
    4.8990   -0.7010    0.0920 C   0  0  0  0  0  0  0  0  0  0  0  0
    4.9980    0.3500   -0.1030 H   0  0  0  0  0  0  0  0  0  0  0  0
    5.3730   -1.2530   -0.6980 H   0  0  0  0  0  0  0  0  0  0  0  0
    5.3870   -0.9360    1.0190 H   0  0  0  0  0  0  0  0  0  0  0  0
    3.4500   -1.1120    0.1790 C   0  0  0  0  0  0  0  0  0  0  0  0
    3.2110   -2.2710    0.3970 O   0  0  0  0  0  0  0  0  0  0  0  0
    2.5040   -0.1400    0.0100 N   0  0  0  0  0  0  0  0  0  0  0  0
    2.8840    0.7930   -0.1260 H   0  0  0  0  0  0  0  0  0  0  0  0
    1.0980   -0.1800    0.0280 C   0  0  0  0  0  0  0  0  0  0  0  0
    0.3630   -1.3630    0.0240 C   0  0  0  0  0  0  0  0  0  0  0  0
    0.8620   -2.3140    0.0060 H   0  0  0  0  0  0  0  0  0  0  0  0
   -1.0200   -1.3380    0.0440 C   0  0  0  0  0  0  0  0  0  0  0  0
   -1.5720   -2.2620    0.0470 H   0  0  0  0  0  0  0  0  0  0  0  0
   -1.6900   -0.1290    0.0610 C   0  0  0  0  0  0  0  0  0  0  0  0
   -2.7640   -0.1100    0.0820 H   0  0  0  0  0  0  0  0  0  0  0  0
   -0.9810    1.0630    0.0550 C   0  0  0  0  0  0  0  0  0  0  0  0
   -1.6510    2.2740    0.0600 N   0  0  0  0  0  0  0  0  0  0  0  0
   -1.1550    3.0690   -0.3520 H   0  0  0  0  0  0  0  0  0  0  0  0
   -2.6300    2.2440   -0.2370 H   0  0  0  0  0  0  0  0  0  0  0  0
    0.4050    1.0230    0.0430 C   0  0  0  0  0  0  0  0  0  0  0  0
    0.9450    1.9490    0.0510 H   0  0  0  0  0  0  0  0  0  0  0  0
  1  2  1  0  0  0  0
  1  3  1  0  0  0  0
  1  4  1  0  0  0  0
  1  5  1  0  0  0  0
  5  6  2  0  0  0  0
  5  7  1  0  0  0  0
  7  8  1  0  0  0  0
  7  9  1  0  0  0  0
  9 10  1  0  0  0  0
  9 20  2  0  0  0  0
 10 11  1  0  0  0  0
 10 12  2  0  0  0  0
 12 13  1  0  0  0  0
 12 14  1  0  0  0  0
 14 15  1  0  0  0  0
 14 16  2  0  0  0  0
 16 17  1  0  0  0  0
 16 20  1  0  0  0  0
 17 18  1  0  0  0  0
 17 19  1  0  0  0  0
 20 21  1  0  0  0  0
M  END
>  <Catalog ID>
Z2472857622

>  <a_acc>
1

>  <a_don>
2

>  <a_heavy>
11

>  <logP>
0.56199998

>  <logS>
-1.31521

>  <TPSA>
55.119999

>  <Weight>
150.181

$$$$
Z285141528
  MOE2024           3D

 29 29  0  0  0  0  0  0  0  0999 V2000
    6.1760   -1.8880    0.5680 C   0  0  0  0  0  0  0  0  0  0  0  0
    6.6630   -1.9430    1.5210 H   0  0  0  0  0  0  0  0  0  0  0  0
    6.7710   -1.2820   -0.0870 H   0  0  0  0  0  0  0  0  0  0  0  0
    6.1060   -2.8760    0.1580 H   0  0  0  0  0  0  0  0  0  0  0  0
    4.5560   -1.1760    0.7520 S   0  0  0  0  0  0  0  0  0  0  0  0
    4.6670    0.2010    1.1690 O   0  0  0  0  0  0  0  0  0  0  0  0
    3.6790   -2.0810    1.4560 O   0  0  0  0  0  0  0  0  0  0  0  0
    3.9480   -1.1860   -0.8100 N   0  0  0  0  0  0  0  0  0  0  0  0
    3.4400   -2.0650   -0.8800 H   0  0  0  0  0  0  0  0  0  0  0  0
    3.0470   -0.0860   -1.1420 C   0  0  0  0  0  0  0  0  0  0  0  0
    2.7770   -0.1690   -2.1820 H   0  0  0  0  0  0  0  0  0  0  0  0
    3.5750    0.8470   -1.0210 H   0  0  0  0  0  0  0  0  0  0  0  0
    1.7680   -0.0780   -0.2740 C   0  0  0  0  0  0  0  0  0  0  0  0
    2.0620    0.0610    0.7530 H   0  0  0  0  0  0  0  0  0  0  0  0
    0.9510   -1.3800   -0.3770 C   0  0  0  0  0  0  0  0  0  0  0  0
    1.5420   -2.2170   -0.0520 H   0  0  0  0  0  0  0  0  0  0  0  0
    0.6600   -1.5660   -1.3970 H   0  0  0  0  0  0  0  0  0  0  0  0
   -0.2900   -1.3170    0.5140 C   0  0  0  0  0  0  0  0  0  0  0  0
    0.0180   -1.2330    1.5450 H   0  0  0  0  0  0  0  0  0  0  0  0
   -0.8620   -2.2240    0.4050 H   0  0  0  0  0  0  0  0  0  0  0  0
   -1.1170   -0.1370    0.1360 N   0  3  0  0  0  0  0  0  0  0  0  0
   -1.9580   -0.1070    0.7260 H   0  0  0  0  0  0  0  0  0  0  0  0
   -1.4360   -0.2530   -0.8340 H   0  0  0  0  0  0  0  0  0  0  0  0
   -0.3800    1.1520    0.2520 C   0  0  0  0  0  0  0  0  0  0  0  0
   -0.0830    1.3090    1.2780 H   0  0  0  0  0  0  0  0  0  0  0  0
   -1.0140    1.9720   -0.0450 H   0  0  0  0  0  0  0  0  0  0  0  0
    0.8680    1.1150   -0.6340 C   0  0  0  0  0  0  0  0  0  0  0  0
    0.5780    1.0740   -1.6690 H   0  0  0  0  0  0  0  0  0  0  0  0
    1.4170    2.0310   -0.4880 H   0  0  0  0  0  0  0  0  0  0  0  0
  1  2  1  0  0  0  0
  1  3  1  0  0  0  0
  1  4  1  0  0  0  0
  1  5  1  0  0  0  0
  5  6  2  0  0  0  0
  5  7  2  0  0  0  0
  5  8  1  0  0  0  0
  8  9  1  0  0  0  0
  8 10  1  0  0  0  0
 10 11  1  0  0  0  0
 10 12  1  0  0  0  0
 10 13  1  0  0  0  0
 13 14  1  0  0  0  0
 13 15  1  0  0  0  0
 13 27  1  0  0  0  0
 15 16  1  0  0  0  0
 15 17  1  0  0  0  0
 15 18  1  0  0  0  0
 18 19  1  0  0  0  0
 18 20  1  0  0  0  0
 18 21  1  0  0  0  0
 21 22  1  0  0  0  0
 21 23  1  0  0  0  0
 21 24  1  0  0  0  0
 24 25  1  0  0  0  0
 24 26  1  0  0  0  0
 24 27  1  0  0  0  0
 27 28  1  0  0  0  0
 27 29  1  0  0  0  0
M  CHG  1  21   1
M  END
>  <Catalog ID>
Z285141528

>  <a_acc>
2

>  <a_don>
1

>  <a_heavy>
12

>  <logP>
-0.22499999

>  <logS>
0.22973999

>  <TPSA>
62.779999

>  <Weight>
193.291

$$$$
Z732776044
  MOE2024           3D

 23 24  0  0  0  0  0  0  0  0999 V2000
    2.7890    0.1060   -0.3360 N   0  0  0  0  0  0  0  0  0  0  0  0
    3.1790    0.8840   -0.8760 H   0  0  0  0  0  0  0  0  0  0  0  0
    3.1920   -0.7910   -0.6190 H   0  0  0  0  0  0  0  0  0  0  0  0
    1.4210    0.1240   -0.1400 C   0  0  0  0  0  0  0  0  0  0  0  0
    0.7310   -1.0530    0.1070 C   0  0  0  0  0  0  0  0  0  0  0  0
    1.2680   -1.9830    0.1580 H   0  0  0  0  0  0  0  0  0  0  0  0
   -0.6380   -1.0320    0.2930 C   0  0  0  0  0  0  0  0  0  0  0  0
   -1.1690   -1.9480    0.4850 H   0  0  0  0  0  0  0  0  0  0  0  0
   -1.3250    0.1680    0.2350 C   0  0  0  0  0  0  0  0  0  0  0  0
   -2.3890    0.1700    0.3920 H   0  0  0  0  0  0  0  0  0  0  0  0
   -0.6600    1.3680   -0.0080 C   0  0  0  0  0  0  0  0  0  0  0  0
    0.7190    1.3190   -0.1920 C   0  0  0  0  0  0  0  0  0  0  0  0
    1.2590    2.2260   -0.3830 H   0  0  0  0  0  0  0  0  0  0  0  0
   -1.3790    2.6260   -0.0650 C   0  0  0  0  0  0  0  0  0  0  0  0
   -0.8900    3.7680    0.5530 C   0  0  0  0  0  0  0  0  0  0  0  0
    0.0370    3.7480    1.0980 H   0  0  0  0  0  0  0  0  0  0  0  0
   -1.6310    4.9250    0.4560 C   0  0  0  0  0  0  0  0  0  0  0  0
   -1.2920    5.8330    0.9200 H   0  0  0  0  0  0  0  0  0  0  0  0
   -2.8250    4.9090   -0.2450 C   0  0  0  0  0  0  0  0  0  0  0  0
   -3.3980    5.8180   -0.3140 H   0  0  0  0  0  0  0  0  0  0  0  0
   -3.3230    3.8420   -0.8460 N   0  0  0  0  0  0  0  0  0  0  0  0
   -2.5930    2.7430   -0.7420 C   0  0  0  0  0  0  0  0  0  0  0  0
   -2.9780    1.8680   -1.2350 H   0  0  0  0  0  0  0  0  0  0  0  0
  1  2  1  0  0  0  0
  1  3  1  0  0  0  0
  1  4  1  0  0  0  0
  4  5  1  0  0  0  0
  4 12  2  0  0  0  0
  5  6  1  0  0  0  0
  5  7  2  0  0  0  0
  7  8  1  0  0  0  0
  7  9  1  0  0  0  0
  9 10  1  0  0  0  0
  9 11  2  0  0  0  0
 11 12  1  0  0  0  0
 11 14  1  0  0  0  0
 12 13  1  0  0  0  0
 14 15  1  0  0  0  0
 14 22  2  0  0  0  0
 15 16  1  0  0  0  0
 15 17  2  0  0  0  0
 17 18  1  0  0  0  0
 17 19  1  0  0  0  0
 19 20  1  0  0  0  0
 19 21  2  0  0  0  0
 21 22  1  0  0  0  0
 22 23  1  0  0  0  0
M  END
>  <Catalog ID>
Z732776044

>  <a_acc>
1

>  <a_don>
1

>  <a_heavy>
13

>  <logP>
1.998

>  <logS>
-2.2739999

>  <TPSA>
38.91

>  <Weight>
170.215

$$$$
Z373768900
  MOE2024           3D

 29 30  0  0  0  0  0  0  0  0999 V2000
    3.0640   -0.5670   -0.6500 C   0  0  0  0  0  0  0  0  0  0  0  0
    4.1190   -0.7340   -0.5350 H   0  0  0  0  0  0  0  0  0  0  0  0
    2.9180    0.2860   -1.2900 H   0  0  0  0  0  0  0  0  0  0  0  0
    2.6270   -1.4360   -1.1110 H   0  0  0  0  0  0  0  0  0  0  0  0
    2.4210   -0.3230    0.7210 C   0  0  0  0  0  0  0  0  0  0  0  0
    2.8560    0.5400    1.1900 H   0  0  0  0  0  0  0  0  0  0  0  0
    2.5770   -1.1760    1.3570 H   0  0  0  0  0  0  0  0  0  0  0  0
    0.9670   -0.1030    0.5940 N   0  0  0  0  0  0  0  0  0  0  0  0
    0.3620    1.0410    0.2110 C   0  0  0  0  0  0  0  0  0  0  0  0
    0.8950    1.9370   -0.0460 H   0  0  0  0  0  0  0  0  0  0  0  0
   -0.9680    0.8140    0.2220 C   0  0  0  0  0  0  0  0  0  0  0  0
   -1.0850   -0.5140    0.6320 C   0  0  0  0  0  0  0  0  0  0  0  0
   -2.0190   -1.0330    0.7530 H   0  0  0  0  0  0  0  0  0  0  0  0
    0.0670   -1.0700    0.8580 N   0  0  0  0  0  0  0  0  0  0  0  0
   -2.0270    1.7020   -0.1030 N   0  0  0  0  0  0  0  0  0  0  0  0
   -2.9600    1.3000   -0.0350 H   0  0  0  0  0  0  0  0  0  0  0  0
   -1.9630    3.0110   -0.4860 C   0  0  0  0  0  0  0  0  0  0  0  0
   -0.9240    3.6160   -0.6160 O   0  0  0  0  0  0  0  0  0  0  0  0
   -3.2720    3.7330   -0.7850 C   0  0  0  0  0  0  0  0  0  0  0  0
   -3.5970    3.6030   -1.8030 H   0  0  0  0  0  0  0  0  0  0  0  0
   -3.3300    5.2220   -0.3440 C   0  0  0  0  0  0  0  0  0  0  0  0
   -3.2040    5.9210   -1.1520 H   0  0  0  0  0  0  0  0  0  0  0  0
   -2.7160    5.4380    0.5140 H   0  0  0  0  0  0  0  0  0  0  0  0
   -4.8100    4.9670    0.0400 C   0  0  0  0  0  0  0  0  0  0  0  0
   -5.4870    5.1190   -0.7840 H   0  0  0  0  0  0  0  0  0  0  0  0
   -5.1160    5.4560    0.9470 H   0  0  0  0  0  0  0  0  0  0  0  0
   -4.4220    3.4780    0.2290 C   0  0  0  0  0  0  0  0  0  0  0  0
   -4.0730    3.2690    1.2260 H   0  0  0  0  0  0  0  0  0  0  0  0
   -5.1660    2.7850   -0.1220 H   0  0  0  0  0  0  0  0  0  0  0  0
  1  2  1  0  0  0  0
  1  3  1  0  0  0  0
  1  4  1  0  0  0  0
  1  5  1  0  0  0  0
  5  6  1  0  0  0  0
  5  7  1  0  0  0  0
  5  8  1  0  0  0  0
  8  9  1  0  0  0  0
  8 14  1  0  0  0  0
  9 10  1  0  0  0  0
  9 11  2  0  0  0  0
 11 12  1  0  0  0  0
 11 15  1  0  0  0  0
 12 13  1  0  0  0  0
 12 14  2  0  0  0  0
 15 16  1  0  0  0  0
 15 17  1  0  0  0  0
 17 18  2  0  0  0  0
 17 19  1  0  0  0  0
 19 20  1  0  0  0  0
 19 21  1  0  0  0  0
 19 27  1  0  0  0  0
 21 22  1  0  0  0  0
 21 23  1  0  0  0  0
 21 24  1  0  0  0  0
 24 25  1  0  0  0  0
 24 26  1  0  0  0  0
 24 27  1  0  0  0  0
 27 28  1  0  0  0  0
 27 29  1  0  0  0  0
M  END
>  <Catalog ID>
Z373768900

>  <a_acc>
2

>  <a_don>
1

>  <a_heavy>
14

>  <logP>
0.30599999

>  <logS>
-1.06831

>  <TPSA>
46.919998

>  <Weight>
193.25

$$$$
Z1509140850
  MOE2024           3D

 32 33  0  0  0  0  0  0  0  0999 V2000
    3.5390   -0.7970    0.1680 C   0  0  0  0  0  0  0  0  0  0  0  0
    4.5210   -0.4520    0.4370 H   0  0  0  0  0  0  0  0  0  0  0  0
    3.5270   -1.0950   -0.8650 H   0  0  0  0  0  0  0  0  0  0  0  0
    3.2500   -1.6100    0.8100 H   0  0  0  0  0  0  0  0  0  0  0  0
    2.6360    0.2720    0.3480 O   0  0  0  0  0  0  0  0  0  0  0  0
    1.3110    0.1220    0.0730 C   0  0  0  0  0  0  0  0  0  0  0  0
    0.7460   -1.0860   -0.3800 C   0  0  0  0  0  0  0  0  0  0  0  0
    1.3570   -1.9560   -0.5250 H   0  0  0  0  0  0  0  0  0  0  0  0
   -0.6020   -1.1700   -0.6430 C   0  0  0  0  0  0  0  0  0  0  0  0
   -1.0410   -2.0900   -0.9880 H   0  0  0  0  0  0  0  0  0  0  0  0
   -1.4010   -0.0400   -0.4560 C   0  0  0  0  0  0  0  0  0  0  0  0
   -2.7470    0.1400   -0.6450 N   0  0  0  0  0  0  0  0  0  0  0  0
   -3.3950   -0.5910   -0.9600 H   0  0  0  0  0  0  0  0  0  0  0  0
   -3.0500    1.4350   -0.3270 C   0  0  0  0  0  0  0  0  0  0  0  0
   -4.0630    1.7910   -0.4020 H   0  0  0  0  0  0  0  0  0  0  0  0
   -1.9210    2.0810    0.0650 C   0  0  0  0  0  0  0  0  0  0  0  0
   -1.7040    3.5100    0.5100 C   0  0  0  0  0  0  0  0  0  0  0  0
   -0.6540    3.7410    0.4280 H   0  0  0  0  0  0  0  0  0  0  0  0
   -2.0080    3.6400    1.5360 H   0  0  0  0  0  0  0  0  0  0  0  0
   -2.4870    4.3830   -0.4000 N   0  3  0  0  0  0  0  0  0  0  0  0
   -2.6100    3.8010   -1.2450 H   0  0  0  0  0  0  0  0  0  0  0  0
   -1.7350    5.6200   -0.7640 C   0  0  0  0  0  0  0  0  0  0  0  0
   -1.5590    6.2250    0.1110 H   0  0  0  0  0  0  0  0  0  0  0  0
   -2.2970    6.2010   -1.4770 H   0  0  0  0  0  0  0  0  0  0  0  0
   -0.7850    5.3640   -1.2050 H   0  0  0  0  0  0  0  0  0  0  0  0
   -3.8330    4.6930    0.1670 C   0  0  0  0  0  0  0  0  0  0  0  0
   -3.7360    5.2880    1.0610 H   0  0  0  0  0  0  0  0  0  0  0  0
   -4.3540    3.7830    0.4150 H   0  0  0  0  0  0  0  0  0  0  0  0
   -4.4230    5.2410   -0.5510 H   0  0  0  0  0  0  0  0  0  0  0  0
   -0.8550    1.1580   -0.0090 C   0  0  0  0  0  0  0  0  0  0  0  0
    0.5160    1.2290    0.2580 C   0  0  0  0  0  0  0  0  0  0  0  0
    0.9610    2.1400    0.6080 H   0  0  0  0  0  0  0  0  0  0  0  0
  1  2  1  0  0  0  0
  1  3  1  0  0  0  0
  1  4  1  0  0  0  0
  1  5  1  0  0  0  0
  5  6  1  0  0  0  0
  6  7  1  0  0  0  0
  6 31  2  0  0  0  0
  7  8  1  0  0  0  0
  7  9  2  0  0  0  0
  9 10  1  0  0  0  0
  9 11  1  0  0  0  0
 11 12  1  0  0  0  0
 11 30  2  0  0  0  0
 12 13  1  0  0  0  0
 12 14  1  0  0  0  0
 14 15  1  0  0  0  0
 14 16  2  0  0  0  0
 16 17  1  0  0  0  0
 16 30  1  0  0  0  0
 17 18  1  0  0  0  0
 17 19  1  0  0  0  0
 17 20  1  0  0  0  0
 20 21  1  0  0  0  0
 20 22  1  0  0  0  0
 20 26  1  0  0  0  0
 22 23  1  0  0  0  0
 22 24  1  0  0  0  0
 22 25  1  0  0  0  0
 26 27  1  0  0  0  0
 26 28  1  0  0  0  0
 26 29  1  0  0  0  0
 30 31  1  0  0  0  0
 31 32  1  0  0  0  0
M  CHG  1  20   1
M  END
>  <Catalog ID>
Z1509140850

>  <a_acc>
1

>  <a_don>
1

>  <a_heavy>
15

>  <logP>
2.3139999

>  <logS>
-1.57222

>  <TPSA>
29.459999

>  <Weight>
205.28099

$$$$
